
OS:Version,
  {afeb121a-f392-460f-8100-d2626415614d}, !- Handle
  2.1.0;                                  !- Version Identifier

OS:Facility,
  {5ef6ee98-4c47-4c14-8fbd-3354dfe890ef}; !- Handle

OS:SimulationControl,
  {d98c9f97-e695-40f1-a8d8-6931351eb02f}; !- Handle

OS:Sizing:Parameters,
  {a4b63195-07d8-452d-9c1b-62a2f6748e21}, !- Handle
  1.25,                                   !- Heating Sizing Factor
  1.15;                                   !- Cooling Sizing Factor

OS:Timestep,
  {07b048b9-f758-4d9b-84a6-82a3f18d7e99}, !- Handle
  6;                                      !- Number of Timesteps per Hour

OS:ShadowCalculation,
  {f15ac8f4-13af-4b9e-8bf3-5236a2d7305e}, !- Handle
  20,                                     !- Calculation Frequency
  15000;                                  !- Maximum Figures in Shadow Overlap Calculations

OS:HeatBalanceAlgorithm,
  {d82b6ed2-5263-4574-945b-b086929585e7}, !- Handle
  ConductionTransferFunction,             !- Algorithm
  200;                                    !- Surface Temperature Upper Limit {C}

OS:RunPeriod,
  {cc67582b-cc80-4250-813c-c8dda4c65648}, !- Handle
  Run Period 1,                           !- Name
  1,                                      !- Begin Month
  1,                                      !- Begin Day of Month
  12,                                     !- End Month
  31,                                     !- End Day of Month
  ,                                       !- Use Weather File Holidays and Special Days
  ,                                       !- Use Weather File Daylight Saving Period
  ,                                       !- Apply Weekend Holiday Rule
  ,                                       !- Use Weather File Rain Indicators
  ,                                       !- Use Weather File Snow Indicators
  ;                                       !- Number of Times Runperiod to be Repeated

OS:LifeCycleCost:Parameters,
  {72cff499-dab1-43c3-b5d6-71e83111ce80}, !- Handle
  ,                                       !- Analysis Type
  ,                                       !- Discounting Convention
  ,                                       !- Inflation Approach
  ,                                       !- Real Discount Rate
  ,                                       !- Nominal Discount Rate
  ,                                       !- Inflation
  ,                                       !- Base Date Month
  ,                                       !- Base Date Year
  ,                                       !- Service Date Month
  ,                                       !- Service Date Year
  ;                                       !- Length of Study Period in Years

OS:WeatherFile,
  {02870acc-0da1-4fba-b3c6-a6180f3a5ea9}, !- Handle
  Climate Zone 3,                         !- City
  CA,                                     !- State Province Region
  USA,                                    !- Country
  CTZRV2,                                 !- Data Source
  724930,                                 !- WMO Number
  37.7,                                   !- Latitude {deg}
  -122.2,                                 !- Longitude {deg}
  -8,                                     !- Time Zone {hr}
  2,                                      !- Elevation {m}
  file:///D:/Sites/OpenStudio-measures/NREL_integration_testing/weather/CZ03RV2.epw, !- Url
  ;                                       !- Checksum

OS:Site,
  {80a4b5fa-0cec-4c9a-9c26-1c040fa95000}, !- Handle
  Climate Zone 3_CA_USA,                  !- Name
  37.7,                                   !- Latitude {deg}
  -122.2,                                 !- Longitude {deg}
  -8,                                     !- Time Zone {hr}
  2,                                      !- Elevation {m}
  ;                                       !- Terrain

OS:ClimateZones,
  {bec17300-2f12-466b-8200-ba1b42250194}, !- Handle
  ,                                       !- Active Institution
  ,                                       !- Active Year
  ,                                       !- Climate Zone Institution Name 1
  ,                                       !- Climate Zone Document Name 1
  ,                                       !- Climate Zone Document Year 1
  ,                                       !- Climate Zone Value 1
  CEC,                                    !- Climate Zone Institution Name 2
  California Climate Zone Descriptions,   !- Climate Zone Document Name 2
  1995,                                   !- Climate Zone Document Year 2
  CEC3;                                   !- Climate Zone Value 2

OS:Site:WaterMainsTemperature,
  {dec28e94-d467-4a53-86ca-f3935ab919ad}, !- Handle
  Correlation,                            !- Calculation Method
  ,                                       !- Temperature Schedule Name
  14.1416666666667,                       !- Annual Average Outdoor Air Temperature {C}
  7.8;                                    !- Maximum Difference In Monthly Average Outdoor Air Temperatures {deltaC}

OS:SizingPeriod:DesignDay,
  {36419b3e-d2ca-43fe-a8ca-2fe540c8aff9}, !- Handle
  Climate Zone 3 Ann Clg .4% Condns DB=>MWB, !- Name
  27.7,                                   !- Maximum Dry-Bulb Temperature {C}
  7.4,                                    !- Daily Dry-Bulb Temperature Range {deltaC}
  18.3,                                   !- Humidity Indicating Conditions at Maximum Dry-Bulb
  101301,                                 !- Barometric Pressure {Pa}
  4.9,                                    !- Wind Speed {m/s}
  290,                                    !- Wind Direction {deg}
  0,                                      !- Sky Clearness
  0,                                      !- Rain Indicator
  0,                                      !- Snow Indicator
  21,                                     !- Day of Month
  8,                                      !- Month
  SummerDesignDay,                        !- Day Type
  0,                                      !- Daylight Saving Time Indicator
  Wetbulb,                                !- Humidity Indicating Type
  ,                                       !- Humidity Indicating Day Schedule Name
  DefaultMultipliers,                     !- Dry-Bulb Temperature Range Modifier Type
  ,                                       !- Dry-Bulb Temperature Range Modifier Schedule Name
  ASHRAETau,                              !- Solar Model Indicator
  ,                                       !- Beam Solar Day Schedule Name
  ,                                       !- Diffuse Solar Day Schedule Name
  0.367,                                  !- ASHRAE Taub {dimensionless}
  2.428;                                  !- ASHRAE Taud {dimensionless}

OS:SizingPeriod:DesignDay,
  {85226502-8bd1-4447-945e-bb6e5197990f}, !- Handle
  Climate Zone 3 Ann Htg 99.6% Condns DB, !- Name
  2.9,                                    !- Maximum Dry-Bulb Temperature {C}
  0,                                      !- Daily Dry-Bulb Temperature Range {deltaC}
  2.9,                                    !- Humidity Indicating Conditions at Maximum Dry-Bulb
  101301,                                 !- Barometric Pressure {Pa}
  2.2,                                    !- Wind Speed {m/s}
  50,                                     !- Wind Direction {deg}
  0,                                      !- Sky Clearness
  0,                                      !- Rain Indicator
  0,                                      !- Snow Indicator
  21,                                     !- Day of Month
  1,                                      !- Month
  WinterDesignDay,                        !- Day Type
  0,                                      !- Daylight Saving Time Indicator
  Wetbulb,                                !- Humidity Indicating Type
  ,                                       !- Humidity Indicating Day Schedule Name
  DefaultMultipliers,                     !- Dry-Bulb Temperature Range Modifier Type
  ,                                       !- Dry-Bulb Temperature Range Modifier Schedule Name
  ASHRAEClearSky;                         !- Solar Model Indicator

OS:SizingPeriod:DesignDay,
  {44f40123-ae80-4bf8-bd28-fc7115fe2e2e}, !- Handle
  Climate Zone 3 Ann Clg .4% Condns WB=>MDB, !- Name
  25.5,                                   !- Maximum Dry-Bulb Temperature {C}
  7.4,                                    !- Daily Dry-Bulb Temperature Range {deltaC}
  19.8,                                   !- Humidity Indicating Conditions at Maximum Dry-Bulb
  101301,                                 !- Barometric Pressure {Pa}
  4.9,                                    !- Wind Speed {m/s}
  290,                                    !- Wind Direction {deg}
  0,                                      !- Sky Clearness
  0,                                      !- Rain Indicator
  0,                                      !- Snow Indicator
  21,                                     !- Day of Month
  8,                                      !- Month
  SummerDesignDay,                        !- Day Type
  0,                                      !- Daylight Saving Time Indicator
  Wetbulb,                                !- Humidity Indicating Type
  ,                                       !- Humidity Indicating Day Schedule Name
  DefaultMultipliers,                     !- Dry-Bulb Temperature Range Modifier Type
  ,                                       !- Dry-Bulb Temperature Range Modifier Schedule Name
  ASHRAETau,                              !- Solar Model Indicator
  ,                                       !- Beam Solar Day Schedule Name
  ,                                       !- Diffuse Solar Day Schedule Name
  0.367,                                  !- ASHRAE Taub {dimensionless}
  2.428;                                  !- ASHRAE Taud {dimensionless}

OS:SpaceType,
  {ffdae3d5-6763-4793-89a0-99471b2f163c}, !- Handle
  Retail Back_Space - CEC T24 2001,       !- Name
  ,                                       !- Default Construction Set Name
  {058f9d9b-ac67-43c5-b00f-6560ecc783e8}, !- Default Schedule Set Name
  {b9a85a36-c47c-41a8-bd18-5482ed628edf}, !- Group Rendering Name
  {85c84687-f3d4-468f-96a8-fc47b6ef61c8}, !- Design Specification Outdoor Air Object Name
  Retail,                                 !- Standards Building Type
  Back_Space;                             !- Standards Space Type

OS:Rendering:Color,
  {b9a85a36-c47c-41a8-bd18-5482ed628edf}, !- Handle
  Rendering Color 1,                      !- Name
  120,                                    !- Rendering Red Value
  149,                                    !- Rendering Green Value
  230;                                    !- Rendering Blue Value

OS:SpaceType,
  {ecf8aae4-929b-432f-a61f-890f2e88f951}, !- Handle
  Retail Entry - CEC T24 2001,            !- Name
  ,                                       !- Default Construction Set Name
  {3ee7568c-8f81-467e-b49c-68b395a179cf}, !- Default Schedule Set Name
  {6ece1a65-8c1c-4edf-9260-6c8497777179}, !- Group Rendering Name
  {28c7ccdf-95b4-43ad-a62a-520d4c11d57f}, !- Design Specification Outdoor Air Object Name
  Retail,                                 !- Standards Building Type
  Entry;                                  !- Standards Space Type

OS:Rendering:Color,
  {6ece1a65-8c1c-4edf-9260-6c8497777179}, !- Handle
  Rendering Color 2,                      !- Name
  169,                                    !- Rendering Red Value
  31,                                     !- Rendering Green Value
  31;                                     !- Rendering Blue Value

OS:SpaceType,
  {2c8130fa-397d-4e37-a514-edfeccf5937a}, !- Handle
  Retail Point_of_Sale - CEC T24 2001,    !- Name
  ,                                       !- Default Construction Set Name
  {eb96d5ae-92cb-4a7d-9e40-d9d570a48b5f}, !- Default Schedule Set Name
  {4c4ede5a-9291-4bf3-8c3f-a76376fe4d9a}, !- Group Rendering Name
  {3e767089-7c1d-4791-a6b4-9e12a98ccafa}, !- Design Specification Outdoor Air Object Name
  Retail,                                 !- Standards Building Type
  Point_of_Sale;                          !- Standards Space Type

OS:Rendering:Color,
  {4c4ede5a-9291-4bf3-8c3f-a76376fe4d9a}, !- Handle
  Rendering Color 3,                      !- Name
  171,                                    !- Rendering Red Value
  222,                                    !- Rendering Green Value
  78;                                     !- Rendering Blue Value

OS:SpaceType,
  {9da80995-c823-4f92-921e-8b5a8aead2e9}, !- Handle
  Retail Retail - CEC T24 2001,           !- Name
  ,                                       !- Default Construction Set Name
  {24a4e883-13fb-4b38-a6ee-42e621ed2842}, !- Default Schedule Set Name
  {3bd1449b-a0fe-4ea9-9c84-492271a27870}, !- Group Rendering Name
  {0f9783c2-1898-4584-94a5-cde3a84b551c}, !- Design Specification Outdoor Air Object Name
  Retail,                                 !- Standards Building Type
  Retail;                                 !- Standards Space Type

OS:Rendering:Color,
  {3bd1449b-a0fe-4ea9-9c84-492271a27870}, !- Handle
  Rendering Color 4,                      !- Name
  171,                                    !- Rendering Red Value
  222,                                    !- Rendering Green Value
  78;                                     !- Rendering Blue Value

OS:Building,
  {1754502a-b253-4c8e-b994-2cc5ec3dc0ad}, !- Handle
  CEC T24 2001|RetailStandalone,          !- Name
  ,                                       !- Building Sector Type
  ,                                       !- North Axis {deg}
  ,                                       !- Nominal Floor to Floor Height {m}
  ,                                       !- Space Type Name
  {eea32f96-35aa-4cb2-a6ff-d25aabfdb502}, !- Default Construction Set Name
  ,                                       !- Default Schedule Set Name
  ,                                       !- Standards Number of Stories
  ,                                       !- Standards Number of Above Ground Stories
  Retail;                                 !- Standards Building Type

OS:BuildingStory,
  {2faafd8b-a700-4699-8075-e94e7171e598}, !- Handle
  Story Ground,                           !- Name
  0,                                      !- Nominal Z Coordinate {m}
  6.096,                                  !- Nominal Floor to Floor Height {m}
  ,                                       !- Default Construction Set Name
  ,                                       !- Default Schedule Set Name
  ;                                       !- Group Rendering Name

OS:Space,
  {ab9fd394-148d-4f6e-9f8f-7bf225f3cfe9}, !- Handle
  Retail Retail A end_a - Story Ground,   !- Name
  {9da80995-c823-4f92-921e-8b5a8aead2e9}, !- Space Type Name
  ,                                       !- Default Construction Set Name
  ,                                       !- Default Schedule Set Name
  -0,                                     !- Direction of Relative North {deg}
  -45.4393730029982,                      !- X Origin {m}
  -35.4995101585923,                      !- Y Origin {m}
  0,                                      !- Z Origin {m}
  {2faafd8b-a700-4699-8075-e94e7171e598}, !- Building Story Name
  {d1b5adfb-3394-4012-ba6a-a3ffef5f8075}; !- Thermal Zone Name

OS:Surface,
  {9534376d-510c-487a-874a-55e480c0ae0a}, !- Handle
  Surface 1,                              !- Name
  Floor,                                  !- Surface Type
  ,                                       !- Construction Name
  {ab9fd394-148d-4f6e-9f8f-7bf225f3cfe9}, !- Space Name
  Ground,                                 !- Outside Boundary Condition
  ,                                       !- Outside Boundary Condition Object
  NoSun,                                  !- Sun Exposure
  NoWind,                                 !- Wind Exposure
  ,                                       !- View Factor to Ground
  ,                                       !- Number of Vertices
  -2.1316282072803e-014, 2.8421709430404e-014, 0, !- X,Y,Z Vertex 1 {m}
  -2.1316282072803e-014, 4.57200000000003, 0, !- X,Y,Z Vertex 2 {m}
  4.57199999999998, 4.57200000000003, 0,  !- X,Y,Z Vertex 3 {m}
  4.57199999999998, 2.8421709430404e-014, 0; !- X,Y,Z Vertex 4 {m}

OS:Surface,
  {97595516-0203-48fb-be41-a0a20c18ae08}, !- Handle
  Surface 2,                              !- Name
  Wall,                                   !- Surface Type
  ,                                       !- Construction Name
  {ab9fd394-148d-4f6e-9f8f-7bf225f3cfe9}, !- Space Name
  Outdoors,                               !- Outside Boundary Condition
  ,                                       !- Outside Boundary Condition Object
  SunExposed,                             !- Sun Exposure
  WindExposed,                            !- Wind Exposure
  ,                                       !- View Factor to Ground
  ,                                       !- Number of Vertices
  -2.1316282072803e-014, 4.57200000000003, 6.096, !- X,Y,Z Vertex 1 {m}
  -2.1316282072803e-014, 4.57200000000003, 0, !- X,Y,Z Vertex 2 {m}
  -2.1316282072803e-014, 2.8421709430404e-014, 0, !- X,Y,Z Vertex 3 {m}
  -2.1316282072803e-014, 2.8421709430404e-014, 6.096; !- X,Y,Z Vertex 4 {m}

OS:Surface,
  {de1f7385-1eaf-4d42-b030-15b95fa4581c}, !- Handle
  Surface 3,                              !- Name
  Wall,                                   !- Surface Type
  ,                                       !- Construction Name
  {ab9fd394-148d-4f6e-9f8f-7bf225f3cfe9}, !- Space Name
  Surface,                                !- Outside Boundary Condition
  {1a9639c1-4654-41ae-b7d4-d845155c5630}, !- Outside Boundary Condition Object
  NoSun,                                  !- Sun Exposure
  NoWind,                                 !- Wind Exposure
  ,                                       !- View Factor to Ground
  ,                                       !- Number of Vertices
  4.57199999999998, 4.57200000000003, 6.096, !- X,Y,Z Vertex 1 {m}
  4.57199999999998, 4.57200000000003, 0,  !- X,Y,Z Vertex 2 {m}
  -2.1316282072803e-014, 4.57200000000003, 0, !- X,Y,Z Vertex 3 {m}
  -2.1316282072803e-014, 4.57200000000003, 6.096; !- X,Y,Z Vertex 4 {m}

OS:Surface,
  {f7537ae3-33cc-4b2b-a822-c7639516c8a8}, !- Handle
  Surface 4,                              !- Name
  Wall,                                   !- Surface Type
  ,                                       !- Construction Name
  {ab9fd394-148d-4f6e-9f8f-7bf225f3cfe9}, !- Space Name
  Surface,                                !- Outside Boundary Condition
  {6d1e7fad-9054-4a15-937f-6d133e9c4d47}, !- Outside Boundary Condition Object
  NoSun,                                  !- Sun Exposure
  NoWind,                                 !- Wind Exposure
  ,                                       !- View Factor to Ground
  ,                                       !- Number of Vertices
  4.57199999999998, 2.8421709430404e-014, 6.096, !- X,Y,Z Vertex 1 {m}
  4.57199999999998, 2.8421709430404e-014, 0, !- X,Y,Z Vertex 2 {m}
  4.57199999999998, 4.57200000000003, 0,  !- X,Y,Z Vertex 3 {m}
  4.57199999999998, 4.57200000000003, 6.096; !- X,Y,Z Vertex 4 {m}

OS:Surface,
  {0907d975-368c-4e4c-9351-eb1f1a5b9555}, !- Handle
  Surface 5,                              !- Name
  Wall,                                   !- Surface Type
  ,                                       !- Construction Name
  {ab9fd394-148d-4f6e-9f8f-7bf225f3cfe9}, !- Space Name
  Outdoors,                               !- Outside Boundary Condition
  ,                                       !- Outside Boundary Condition Object
  SunExposed,                             !- Sun Exposure
  WindExposed,                            !- Wind Exposure
  ,                                       !- View Factor to Ground
  ,                                       !- Number of Vertices
  -2.1316282072803e-014, 2.8421709430404e-014, 6.096, !- X,Y,Z Vertex 1 {m}
  -2.1316282072803e-014, 2.8421709430404e-014, 0, !- X,Y,Z Vertex 2 {m}
  4.57199999999998, 2.8421709430404e-014, 0, !- X,Y,Z Vertex 3 {m}
  4.57199999999998, 2.8421709430404e-014, 6.096; !- X,Y,Z Vertex 4 {m}

OS:Surface,
  {cc340dec-8bfe-4ab2-945a-a09439a5e2d8}, !- Handle
  Surface 6,                              !- Name
  RoofCeiling,                            !- Surface Type
  ,                                       !- Construction Name
  {ab9fd394-148d-4f6e-9f8f-7bf225f3cfe9}, !- Space Name
  Outdoors,                               !- Outside Boundary Condition
  ,                                       !- Outside Boundary Condition Object
  SunExposed,                             !- Sun Exposure
  WindExposed,                            !- Wind Exposure
  ,                                       !- View Factor to Ground
  ,                                       !- Number of Vertices
  4.57199999999998, 2.8421709430404e-014, 6.096, !- X,Y,Z Vertex 1 {m}
  4.57199999999998, 4.57200000000003, 6.096, !- X,Y,Z Vertex 2 {m}
  -2.1316282072803e-014, 4.57200000000003, 6.096, !- X,Y,Z Vertex 3 {m}
  -2.1316282072803e-014, 2.8421709430404e-014, 6.096; !- X,Y,Z Vertex 4 {m}

OS:ThermalZone,
  {d1b5adfb-3394-4012-ba6a-a3ffef5f8075}, !- Handle
  Zone Retail Retail A end_a - Story Ground, !- Name
  1,                                      !- Multiplier
  ,                                       !- Ceiling Height {m}
  ,                                       !- Volume {m3}
  ,                                       !- Floor Area {m2}
  ,                                       !- Zone Inside Convection Algorithm
  ,                                       !- Zone Outside Convection Algorithm
  ,                                       !- Zone Conditioning Equipment List Name
  {f2ee973d-8ef4-4088-8dc9-79e68afd46d7}, !- Zone Air Inlet Port List
  {1aece397-159b-48b6-9407-de877c788221}, !- Zone Air Exhaust Port List
  {79f86977-5430-46e0-843b-e9bb65ec175e}, !- Zone Air Node Name
  {53d40466-300e-499d-90a5-ab8a4f722291}, !- Zone Return Air Node Name
  ,                                       !- Primary Daylighting Control Name
  ,                                       !- Fraction of Zone Controlled by Primary Daylighting Control
  ,                                       !- Secondary Daylighting Control Name
  ,                                       !- Fraction of Zone Controlled by Secondary Daylighting Control
  ,                                       !- Illuminance Map Name
  ,                                       !- Group Rendering Name
  {0af0089e-993c-422c-8d04-8597acccfaca}, !- Thermostat Name
  No;                                     !- Use Ideal Air Loads

OS:Node,
  {b1ca9f8e-5ed7-48c8-8ce8-51e7bf825e59}, !- Handle
  Node 1,                                 !- Name
  {79f86977-5430-46e0-843b-e9bb65ec175e}, !- Inlet Port
  ;                                       !- Outlet Port

OS:Connection,
  {79f86977-5430-46e0-843b-e9bb65ec175e}, !- Handle
  {2affd07a-6194-4709-a97e-745e447b263c}, !- Name
  {d1b5adfb-3394-4012-ba6a-a3ffef5f8075}, !- Source Object
  11,                                     !- Outlet Port
  {b1ca9f8e-5ed7-48c8-8ce8-51e7bf825e59}, !- Target Object
  2;                                      !- Inlet Port

OS:PortList,
  {f2ee973d-8ef4-4088-8dc9-79e68afd46d7}, !- Handle
  Port List 1,                            !- Name
  {d1b5adfb-3394-4012-ba6a-a3ffef5f8075}, !- HVAC Component
  {33826784-7492-4f4c-88a4-30615f18db18}; !- Port 1

OS:PortList,
  {1aece397-159b-48b6-9407-de877c788221}, !- Handle
  Port List 2,                            !- Name
  {d1b5adfb-3394-4012-ba6a-a3ffef5f8075}; !- HVAC Component

OS:Sizing:Zone,
  {1beb1493-c96f-48e5-bb4c-9a04547e3b42}, !- Handle
  {d1b5adfb-3394-4012-ba6a-a3ffef5f8075}, !- Zone or ZoneList Name
  SupplyAirTemperature,                   !- Zone Cooling Design Supply Air Temperature Input Method
  12.8,                                   !- Zone Cooling Design Supply Air Temperature {C}
  11.11,                                  !- Zone Cooling Design Supply Air Temperature Difference {deltaC}
  SupplyAirTemperature,                   !- Zone Heating Design Supply Air Temperature Input Method
  40,                                     !- Zone Heating Design Supply Air Temperature {C}
  11.11,                                  !- Zone Heating Design Supply Air Temperature Difference {deltaC}
  0.0085,                                 !- Zone Cooling Design Supply Air Humidity Ratio {kg-H2O/kg-air}
  0.008,                                  !- Zone Heating Design Supply Air Humidity Ratio {kg-H2O/kg-air}
  ,                                       !- Zone Heating Sizing Factor
  ,                                       !- Zone Cooling Sizing Factor
  DesignDay,                              !- Cooling Design Air Flow Method
  ,                                       !- Cooling Design Air Flow Rate {m3/s}
  ,                                       !- Cooling Minimum Air Flow per Zone Floor Area {m3/s-m2}
  ,                                       !- Cooling Minimum Air Flow {m3/s}
  ,                                       !- Cooling Minimum Air Flow Fraction
  DesignDay,                              !- Heating Design Air Flow Method
  ,                                       !- Heating Design Air Flow Rate {m3/s}
  ,                                       !- Heating Maximum Air Flow per Zone Floor Area {m3/s-m2}
  ,                                       !- Heating Maximum Air Flow {m3/s}
  ,                                       !- Heating Maximum Air Flow Fraction
  ,                                       !- Design Zone Air Distribution Effectiveness in Cooling Mode
  ,                                       !- Design Zone Air Distribution Effectiveness in Heating Mode
  No,                                     !- Account for Dedicated Outdoor Air System
  NeutralSupplyAir,                       !- Dedicated Outdoor Air System Control Strategy
  autosize,                               !- Dedicated Outdoor Air Low Setpoint Temperature for Design {C}
  autosize;                               !- Dedicated Outdoor Air High Setpoint Temperature for Design {C}

OS:ZoneHVAC:EquipmentList,
  {c038d957-68fa-49df-8ef8-b67a2af98cf0}, !- Handle
  Zone HVAC Equipment List 1,             !- Name
  {d1b5adfb-3394-4012-ba6a-a3ffef5f8075}, !- Thermal Zone
  {65afa84f-c25d-4b86-86be-67ad80ef9ce2}, !- Zone Equipment 1
  1,                                      !- Zone Equipment Cooling Sequence 1
  1;                                      !- Zone Equipment Heating or No-Load Sequence 1

OS:Space,
  {5d44df33-45c8-44b8-aa27-d187b7fecce5}, !- Handle
  Retail Retail B end_a - Story Ground,   !- Name
  {9da80995-c823-4f92-921e-8b5a8aead2e9}, !- Space Type Name
  ,                                       !- Default Construction Set Name
  ,                                       !- Default Schedule Set Name
  -0,                                     !- Direction of Relative North {deg}
  -45.4393730029982,                      !- X Origin {m}
  -30.9275101585923,                      !- Y Origin {m}
  0,                                      !- Z Origin {m}
  {2faafd8b-a700-4699-8075-e94e7171e598}, !- Building Story Name
  {c314e070-b927-4321-bab5-be52e31f2505}; !- Thermal Zone Name

OS:Surface,
  {8a21ace1-c11a-4352-9682-6bc1e17b0b89}, !- Handle
  Surface 7,                              !- Name
  Floor,                                  !- Surface Type
  ,                                       !- Construction Name
  {5d44df33-45c8-44b8-aa27-d187b7fecce5}, !- Space Name
  Ground,                                 !- Outside Boundary Condition
  ,                                       !- Outside Boundary Condition Object
  NoSun,                                  !- Sun Exposure
  NoWind,                                 !- Wind Exposure
  ,                                       !- View Factor to Ground
  ,                                       !- Number of Vertices
  -2.1316282072803e-014, 3.19744231092045e-014, 0, !- X,Y,Z Vertex 1 {m}
  -2.1316282072803e-014, 61.8550203171846, 0, !- X,Y,Z Vertex 2 {m}
  4.57199999999998, 61.8550203171846, 0,  !- X,Y,Z Vertex 3 {m}
  4.57199999999998, 3.19744231092045e-014, 0; !- X,Y,Z Vertex 4 {m}

OS:Surface,
  {c67126fa-9f02-4576-8de0-552d3be6edd8}, !- Handle
  Surface 8,                              !- Name
  Wall,                                   !- Surface Type
  ,                                       !- Construction Name
  {5d44df33-45c8-44b8-aa27-d187b7fecce5}, !- Space Name
  Outdoors,                               !- Outside Boundary Condition
  ,                                       !- Outside Boundary Condition Object
  SunExposed,                             !- Sun Exposure
  WindExposed,                            !- Wind Exposure
  ,                                       !- View Factor to Ground
  ,                                       !- Number of Vertices
  -2.1316282072803e-014, 61.8550203171846, 6.096, !- X,Y,Z Vertex 1 {m}
  -2.1316282072803e-014, 61.8550203171846, 0, !- X,Y,Z Vertex 2 {m}
  -2.1316282072803e-014, 3.19744231092045e-014, 0, !- X,Y,Z Vertex 3 {m}
  -2.1316282072803e-014, 3.19744231092045e-014, 6.096; !- X,Y,Z Vertex 4 {m}

OS:Surface,
  {c7b25807-dfee-4b7e-82fa-0ccf015fa250}, !- Handle
  Surface 9,                              !- Name
  Wall,                                   !- Surface Type
  ,                                       !- Construction Name
  {5d44df33-45c8-44b8-aa27-d187b7fecce5}, !- Space Name
  Surface,                                !- Outside Boundary Condition
  {017baf6f-28f8-4ea8-aa75-229f9612c4db}, !- Outside Boundary Condition Object
  NoSun,                                  !- Sun Exposure
  NoWind,                                 !- Wind Exposure
  ,                                       !- View Factor to Ground
  ,                                       !- Number of Vertices
  4.57199999999998, 61.8550203171846, 6.096, !- X,Y,Z Vertex 1 {m}