
OS:Version,
  {4ef48f4f-e805-460b-9e71-b854fc76ba93}, !- Handle
  2.1.0;                                  !- Version Identifier

OS:Facility,
  {82b67a6c-8838-481f-88d4-bade2616a729}; !- Handle

OS:SimulationControl,
  {6b4a4919-81ae-464d-af76-7debb1a58705}; !- Handle

OS:Sizing:Parameters,
  {2b06d10e-420e-4d2e-b123-0fb947f2ee60}, !- Handle
  1.25,                                   !- Heating Sizing Factor
  1.15;                                   !- Cooling Sizing Factor

OS:Timestep,
  {e6906599-464e-441f-a8bb-330a67a65e62}, !- Handle
  6;                                      !- Number of Timesteps per Hour

OS:ShadowCalculation,
  {eae0e456-2492-46eb-8999-0e21ef142b20}, !- Handle
  20,                                     !- Calculation Frequency
  15000;                                  !- Maximum Figures in Shadow Overlap Calculations

OS:HeatBalanceAlgorithm,
  {6568e3c1-01ad-4c64-b52b-7c52de58cf49}, !- Handle
  ConductionTransferFunction,             !- Algorithm
  200;                                    !- Surface Temperature Upper Limit {C}

OS:RunPeriod,
  {ec771f32-8b83-421f-9376-ac7382ea5250}, !- Handle
  Run Period 1,                           !- Name
  1,                                      !- Begin Month
  1,                                      !- Begin Day of Month
  12,                                     !- End Month
  31,                                     !- End Day of Month
  ,                                       !- Use Weather File Holidays and Special Days
  ,                                       !- Use Weather File Daylight Saving Period
  ,                                       !- Apply Weekend Holiday Rule
  ,                                       !- Use Weather File Rain Indicators
  ,                                       !- Use Weather File Snow Indicators
  ;                                       !- Number of Times Runperiod to be Repeated

OS:LifeCycleCost:Parameters,
  {a249f271-ddb0-44d8-9529-743fe85b2aca}, !- Handle
  ,                                       !- Analysis Type
  ,                                       !- Discounting Convention
  ,                                       !- Inflation Approach
  ,                                       !- Real Discount Rate
  ,                                       !- Nominal Discount Rate
  ,                                       !- Inflation
  ,                                       !- Base Date Month
  ,                                       !- Base Date Year
  ,                                       !- Service Date Month
  ,                                       !- Service Date Year
  ;                                       !- Length of Study Period in Years

OS:WeatherFile,
  {d4d71ad9-2af5-4905-b48c-835a31f06243}, !- Handle
  Climate Zone 3,                         !- City
  CA,                                     !- State Province Region
  USA,                                    !- Country
  CTZRV2,                                 !- Data Source
  724930,                                 !- WMO Number
  37.7,                                   !- Latitude {deg}
  -122.2,                                 !- Longitude {deg}
  -8,                                     !- Time Zone {hr}
  2,                                      !- Elevation {m}
  file:///D:/Sites/OpenStudio-measures/NREL_integration_testing/weather/CZ03RV2.epw, !- Url
  ;                                       !- Checksum

OS:Site,
  {eebd9bb5-06a0-464a-a84a-6118cdb4349d}, !- Handle
  Climate Zone 3_CA_USA,                  !- Name
  37.7,                                   !- Latitude {deg}
  -122.2,                                 !- Longitude {deg}
  -8,                                     !- Time Zone {hr}
  2,                                      !- Elevation {m}
  ;                                       !- Terrain

OS:ClimateZones,
  {89a7d039-0905-487c-b944-808d67e8058a}, !- Handle
  ,                                       !- Active Institution
  ,                                       !- Active Year
  ,                                       !- Climate Zone Institution Name 1
  ,                                       !- Climate Zone Document Name 1
  ,                                       !- Climate Zone Document Year 1
  ,                                       !- Climate Zone Value 1
  CEC,                                    !- Climate Zone Institution Name 2
  California Climate Zone Descriptions,   !- Climate Zone Document Name 2
  1995,                                   !- Climate Zone Document Year 2
  CEC3;                                   !- Climate Zone Value 2

OS:Site:WaterMainsTemperature,
  {e8140554-5635-45b7-a251-d0b85aa79581}, !- Handle
  Correlation,                            !- Calculation Method
  ,                                       !- Temperature Schedule Name
  14.1416666666667,                       !- Annual Average Outdoor Air Temperature {C}
  7.8;                                    !- Maximum Difference In Monthly Average Outdoor Air Temperatures {deltaC}

OS:SizingPeriod:DesignDay,
  {4e7eec52-b8af-4ada-9e87-ff382c025165}, !- Handle
  Climate Zone 3 Ann Htg 99.6% Condns DB, !- Name
  2.9,                                    !- Maximum Dry-Bulb Temperature {C}
  0,                                      !- Daily Dry-Bulb Temperature Range {deltaC}
  2.9,                                    !- Humidity Indicating Conditions at Maximum Dry-Bulb
  101301,                                 !- Barometric Pressure {Pa}
  2.2,                                    !- Wind Speed {m/s}
  50,                                     !- Wind Direction {deg}
  0,                                      !- Sky Clearness
  0,                                      !- Rain Indicator
  0,                                      !- Snow Indicator
  21,                                     !- Day of Month
  1,                                      !- Month
  WinterDesignDay,                        !- Day Type
  0,                                      !- Daylight Saving Time Indicator
  Wetbulb,                                !- Humidity Indicating Type
  ,                                       !- Humidity Indicating Day Schedule Name
  DefaultMultipliers,                     !- Dry-Bulb Temperature Range Modifier Type
  ,                                       !- Dry-Bulb Temperature Range Modifier Schedule Name
  ASHRAEClearSky;                         !- Solar Model Indicator

OS:SizingPeriod:DesignDay,
  {7e9addb2-98d7-4880-9820-1e544f3b0e49}, !- Handle
  Climate Zone 3 Ann Clg .4% Condns DB=>MWB, !- Name
  27.7,                                   !- Maximum Dry-Bulb Temperature {C}
  7.4,                                    !- Daily Dry-Bulb Temperature Range {deltaC}
  18.3,                                   !- Humidity Indicating Conditions at Maximum Dry-Bulb
  101301,                                 !- Barometric Pressure {Pa}
  4.9,                                    !- Wind Speed {m/s}
  290,                                    !- Wind Direction {deg}
  0,                                      !- Sky Clearness
  0,                                      !- Rain Indicator
  0,                                      !- Snow Indicator
  21,                                     !- Day of Month
  8,                                      !- Month
  SummerDesignDay,                        !- Day Type
  0,                                      !- Daylight Saving Time Indicator
  Wetbulb,                                !- Humidity Indicating Type
  ,                                       !- Humidity Indicating Day Schedule Name
  DefaultMultipliers,                     !- Dry-Bulb Temperature Range Modifier Type
  ,                                       !- Dry-Bulb Temperature Range Modifier Schedule Name
  ASHRAETau,                              !- Solar Model Indicator
  ,                                       !- Beam Solar Day Schedule Name
  ,                                       !- Diffuse Solar Day Schedule Name
  0.367,                                  !- ASHRAE Taub {dimensionless}
  2.428;                                  !- ASHRAE Taud {dimensionless}

OS:SizingPeriod:DesignDay,
  {535e3387-6207-4f76-88a1-6a6f0107728e}, !- Handle
  Climate Zone 3 Ann Clg .4% Condns WB=>MDB, !- Name
  25.5,                                   !- Maximum Dry-Bulb Temperature {C}
  7.4,                                    !- Daily Dry-Bulb Temperature Range {deltaC}
  19.8,                                   !- Humidity Indicating Conditions at Maximum Dry-Bulb
  101301,                                 !- Barometric Pressure {Pa}
  4.9,                                    !- Wind Speed {m/s}
  290,                                    !- Wind Direction {deg}
  0,                                      !- Sky Clearness
  0,                                      !- Rain Indicator
  0,                                      !- Snow Indicator
  21,                                     !- Day of Month
  8,                                      !- Month
  SummerDesignDay,                        !- Day Type
  0,                                      !- Daylight Saving Time Indicator
  Wetbulb,                                !- Humidity Indicating Type
  ,                                       !- Humidity Indicating Day Schedule Name
  DefaultMultipliers,                     !- Dry-Bulb Temperature Range Modifier Type
  ,                                       !- Dry-Bulb Temperature Range Modifier Schedule Name
  ASHRAETau,                              !- Solar Model Indicator
  ,                                       !- Beam Solar Day Schedule Name
  ,                                       !- Diffuse Solar Day Schedule Name
  0.367,                                  !- ASHRAE Taub {dimensionless}
  2.428;                                  !- ASHRAE Taud {dimensionless}

OS:SpaceType,
  {1d7e3ab5-c2ec-470b-9910-f5154eb9fb3c}, !- Handle
  Retail Back_Space - CEC T24 2001,       !- Name
  ,                                       !- Default Construction Set Name
  {e9a9d11b-72e3-41d2-b8d2-c5a163e4d30a}, !- Default Schedule Set Name
  {8e18f69c-9b03-429f-8f78-0bc45cb56f85}, !- Group Rendering Name
  {158981ff-ce12-48bb-b44b-e543253cf476}, !- Design Specification Outdoor Air Object Name
  Retail,                                 !- Standards Building Type
  Back_Space;                             !- Standards Space Type

OS:Rendering:Color,
  {8e18f69c-9b03-429f-8f78-0bc45cb56f85}, !- Handle
  Rendering Color 1,                      !- Name
  120,                                    !- Rendering Red Value
  149,                                    !- Rendering Green Value
  230;                                    !- Rendering Blue Value

OS:SpaceType,
  {1a619db2-0a46-4f3f-abac-f4ab4bc9317e}, !- Handle
  Retail Entry - CEC T24 2001,            !- Name
  ,                                       !- Default Construction Set Name
  {71a5525e-da02-42cf-b80a-6b7052c9534f}, !- Default Schedule Set Name
  {36eb4e92-5043-41d8-b959-b762748406b2}, !- Group Rendering Name
  {c6d5f3e2-454b-4d68-97cb-caf8aaf8805b}, !- Design Specification Outdoor Air Object Name
  Retail,                                 !- Standards Building Type
  Entry;                                  !- Standards Space Type

OS:Rendering:Color,
  {36eb4e92-5043-41d8-b959-b762748406b2}, !- Handle
  Rendering Color 2,                      !- Name
  169,                                    !- Rendering Red Value
  31,                                     !- Rendering Green Value
  31;                                     !- Rendering Blue Value

OS:SpaceType,
  {12a5ce9b-43a0-4e88-b64b-459320ac3d34}, !- Handle
  Retail Point_of_Sale - CEC T24 2001,    !- Name
  ,                                       !- Default Construction Set Name
  {ddbfb542-3006-4afa-9165-fd7482f7b73c}, !- Default Schedule Set Name
  {21cbc38a-b480-4166-896d-78c583eeaa46}, !- Group Rendering Name
  {c64c1e79-7d92-4454-a3ad-92272445c389}, !- Design Specification Outdoor Air Object Name
  Retail,                                 !- Standards Building Type
  Point_of_Sale;                          !- Standards Space Type

OS:Rendering:Color,
  {21cbc38a-b480-4166-896d-78c583eeaa46}, !- Handle
  Rendering Color 3,                      !- Name
  171,                                    !- Rendering Red Value
  222,                                    !- Rendering Green Value
  78;                                     !- Rendering Blue Value

OS:SpaceType,
  {db8fcd5c-f434-479b-be79-44c26678831c}, !- Handle
  Retail Retail - CEC T24 2001,           !- Name
  ,                                       !- Default Construction Set Name
  {e1e38d1a-0ac4-498e-b99b-0743a5772bc3}, !- Default Schedule Set Name
  {e8de2121-85d5-4d53-beea-7ec71070b115}, !- Group Rendering Name
  {3d5ebd47-c8a6-474a-b7fc-f3fbb0a01202}, !- Design Specification Outdoor Air Object Name
  Retail,                                 !- Standards Building Type
  Retail;                                 !- Standards Space Type

OS:Rendering:Color,
  {e8de2121-85d5-4d53-beea-7ec71070b115}, !- Handle
  Rendering Color 4,                      !- Name
  171,                                    !- Rendering Red Value
  222,                                    !- Rendering Green Value
  78;                                     !- Rendering Blue Value

OS:Building,
  {4014d11d-9e15-4f3d-b2a8-ed2a10b9b92d}, !- Handle
  CEC T24 2001|RetailStandalone,          !- Name
  ,                                       !- Building Sector Type
  ,                                       !- North Axis {deg}
  ,                                       !- Nominal Floor to Floor Height {m}
  ,                                       !- Space Type Name
  {fa708a0f-9f7b-49df-bade-985377516f6d}, !- Default Construction Set Name
  ,                                       !- Default Schedule Set Name
  ,                                       !- Standards Number of Stories
  ,                                       !- Standards Number of Above Ground Stories
  Retail;                                 !- Standards Building Type

OS:BuildingStory,
  {07196ac1-8fe9-46fb-9444-1316cc093e07}, !- Handle
  Story Ground,                           !- Name
  0,                                      !- Nominal Z Coordinate {m}
  6.096,                                  !- Nominal Floor to Floor Height {m}
  ,                                       !- Default Construction Set Name
  ,                                       !- Default Schedule Set Name
  ;                                       !- Group Rendering Name

OS:Space,
  {1e27a303-1228-4f97-9ebd-5163e75c56d0}, !- Handle
  Retail Retail A end_a - Story Ground,   !- Name
  {db8fcd5c-f434-479b-be79-44c26678831c}, !- Space Type Name
  ,                                       !- Default Construction Set Name
  ,                                       !- Default Schedule Set Name
  -0,                                     !- Direction of Relative North {deg}
  -45.4393730029982,                      !- X Origin {m}
  -35.4995101585923,                      !- Y Origin {m}
  0,                                      !- Z Origin {m}
  {07196ac1-8fe9-46fb-9444-1316cc093e07}, !- Building Story Name
  {0baab997-d23a-4c61-87c1-94db77720953}; !- Thermal Zone Name

OS:Surface,
  {3aff8d24-6057-4839-857e-721da98c1202}, !- Handle
  Surface 1,                              !- Name
  Floor,                                  !- Surface Type
  ,                                       !- Construction Name
  {1e27a303-1228-4f97-9ebd-5163e75c56d0}, !- Space Name
  Ground,                                 !- Outside Boundary Condition
  ,                                       !- Outside Boundary Condition Object
  NoSun,                                  !- Sun Exposure
  NoWind,                                 !- Wind Exposure
  ,                                       !- View Factor to Ground
  ,                                       !- Number of Vertices
  -2.1316282072803e-014, 2.8421709430404e-014, 0, !- X,Y,Z Vertex 1 {m}
  -2.1316282072803e-014, 4.57200000000003, 0, !- X,Y,Z Vertex 2 {m}
  4.57199999999998, 4.57200000000003, 0,  !- X,Y,Z Vertex 3 {m}
  4.57199999999998, 2.8421709430404e-014, 0; !- X,Y,Z Vertex 4 {m}

OS:Surface,
  {31b32c80-5384-4140-b7b8-3b0c868a968e}, !- Handle
  Surface 2,                              !- Name
  Wall,                                   !- Surface Type
  ,                                       !- Construction Name
  {1e27a303-1228-4f97-9ebd-5163e75c56d0}, !- Space Name
  Outdoors,                               !- Outside Boundary Condition
  ,                                       !- Outside Boundary Condition Object
  SunExposed,                             !- Sun Exposure
  WindExposed,                            !- Wind Exposure
  ,                                       !- View Factor to Ground
  ,                                       !- Number of Vertices
  -2.1316282072803e-014, 4.57200000000003, 6.096, !- X,Y,Z Vertex 1 {m}
  -2.1316282072803e-014, 4.57200000000003, 0, !- X,Y,Z Vertex 2 {m}
  -2.1316282072803e-014, 2.8421709430404e-014, 0, !- X,Y,Z Vertex 3 {m}
  -2.1316282072803e-014, 2.8421709430404e-014, 6.096; !- X,Y,Z Vertex 4 {m}

OS:Surface,
  {72e36702-d3f5-440e-937e-640860992c93}, !- Handle
  Surface 3,                              !- Name
  Wall,                                   !- Surface Type
  ,                                       !- Construction Name
  {1e27a303-1228-4f97-9ebd-5163e75c56d0}, !- Space Name
  Surface,                                !- Outside Boundary Condition
  {38564935-e423-48ee-a987-234e71b726f3}, !- Outside Boundary Condition Object
  NoSun,                                  !- Sun Exposure
  NoWind,                                 !- Wind Exposure
  ,                                       !- View Factor to Ground
  ,                                       !- Number of Vertices
  4.57199999999998, 4.57200000000003, 6.096, !- X,Y,Z Vertex 1 {m}
  4.57199999999998, 4.57200000000003, 0,  !- X,Y,Z Vertex 2 {m}
  -2.1316282072803e-014, 4.57200000000003, 0, !- X,Y,Z Vertex 3 {m}
  -2.1316282072803e-014, 4.57200000000003, 6.096; !- X,Y,Z Vertex 4 {m}

OS:Surface,
  {2ad2596c-ce6b-475e-9ef9-b3240b714d2d}, !- Handle
  Surface 4,                              !- Name
  Wall,                                   !- Surface Type
  ,                                       !- Construction Name
  {1e27a303-1228-4f97-9ebd-5163e75c56d0}, !- Space Name
  Surface,                                !- Outside Boundary Condition
  {e0169128-31c4-42a7-b452-05b90cdd9346}, !- Outside Boundary Condition Object
  NoSun,                                  !- Sun Exposure
  NoWind,                                 !- Wind Exposure
  ,                                       !- View Factor to Ground
  ,                                       !- Number of Vertices
  4.57199999999998, 2.8421709430404e-014, 6.096, !- X,Y,Z Vertex 1 {m}
  4.57199999999998, 2.8421709430404e-014, 0, !- X,Y,Z Vertex 2 {m}
  4.57199999999998, 4.57200000000003, 0,  !- X,Y,Z Vertex 3 {m}
  4.57199999999998, 4.57200000000003, 6.096; !- X,Y,Z Vertex 4 {m}

OS:Surface,
  {b0f42301-4fc5-41ef-b1d7-89c8742f827d}, !- Handle
  Surface 5,                              !- Name
  Wall,                                   !- Surface Type
  ,                                       !- Construction Name
  {1e27a303-1228-4f97-9ebd-5163e75c56d0}, !- Space Name
  Outdoors,                               !- Outside Boundary Condition
  ,                                       !- Outside Boundary Condition Object
  SunExposed,                             !- Sun Exposure
  WindExposed,                            !- Wind Exposure
  ,                                       !- View Factor to Ground
  ,                                       !- Number of Vertices
  -2.1316282072803e-014, 2.8421709430404e-014, 6.096, !- X,Y,Z Vertex 1 {m}
  -2.1316282072803e-014, 2.8421709430404e-014, 0, !- X,Y,Z Vertex 2 {m}
  4.57199999999998, 2.8421709430404e-014, 0, !- X,Y,Z Vertex 3 {m}
  4.57199999999998, 2.8421709430404e-014, 6.096; !- X,Y,Z Vertex 4 {m}

OS:Surface,
  {fa73cd9b-1402-477a-9e86-e5143356870a}, !- Handle
  Surface 6,                              !- Name
  RoofCeiling,                            !- Surface Type
  ,                                       !- Construction Name
  {1e27a303-1228-4f97-9ebd-5163e75c56d0}, !- Space Name
  Outdoors,                               !- Outside Boundary Condition
  ,                                       !- Outside Boundary Condition Object
  SunExposed,                             !- Sun Exposure
  WindExposed,                            !- Wind Exposure
  ,                                       !- View Factor to Ground
  ,                                       !- Number of Vertices
  4.57199999999998, 2.8421709430404e-014, 6.096, !- X,Y,Z Vertex 1 {m}
  4.57199999999998, 4.57200000000003, 6.096, !- X,Y,Z Vertex 2 {m}
  -2.1316282072803e-014, 4.57200000000003, 6.096, !- X,Y,Z Vertex 3 {m}
  -2.1316282072803e-014, 2.8421709430404e-014, 6.096; !- X,Y,Z Vertex 4 {m}

OS:ThermalZone,
  {0baab997-d23a-4c61-87c1-94db77720953}, !- Handle
  Zone Retail Retail A end_a - Story Ground, !- Name
  1,                                      !- Multiplier
  ,                                       !- Ceiling Height {m}
  ,                                       !- Volume {m3}
  ,                                       !- Floor Area {m2}
  ,                                       !- Zone Inside Convection Algorithm
  ,                                       !- Zone Outside Convection Algorithm
  ,                                       !- Zone Conditioning Equipment List Name
  {cac5a552-9194-4348-9266-1273b6a5d213}, !- Zone Air Inlet Port List
  {f1ba1d14-6279-4d29-ac25-d89608dc1c15}, !- Zone Air Exhaust Port List
  {35a61fb2-cb9a-40ca-a22d-1d3113adc493}, !- Zone Air Node Name
  {b9b47504-1a07-4c41-b8d2-7770db0d4083}, !- Zone Return Air Node Name
  ,                                       !- Primary Daylighting Control Name
  ,                                       !- Fraction of Zone Controlled by Primary Daylighting Control
  ,                                       !- Secondary Daylighting Control Name
  ,                                       !- Fraction of Zone Controlled by Secondary Daylighting Control
  ,                                       !- Illuminance Map Name
  ,                                       !- Group Rendering Name
  {72d4e9dd-ab41-4859-be57-0d910e0aea3e}, !- Thermostat Name
  No;                                     !- Use Ideal Air Loads

OS:Node,
  {68de4044-4c68-490f-bffa-5885c9c6059f}, !- Handle
  Node 1,                                 !- Name
  {35a61fb2-cb9a-40ca-a22d-1d3113adc493}, !- Inlet Port
  ;                                       !- Outlet Port

OS:Connection,
  {35a61fb2-cb9a-40ca-a22d-1d3113adc493}, !- Handle
  {572357a1-8854-4d0b-bfeb-2dbe95545d94}, !- Name
  {0baab997-d23a-4c61-87c1-94db77720953}, !- Source Object
  11,                                     !- Outlet Port
  {68de4044-4c68-490f-bffa-5885c9c6059f}, !- Target Object
  2;                                      !- Inlet Port

OS:PortList,
  {cac5a552-9194-4348-9266-1273b6a5d213}, !- Handle
  Port List 1,                            !- Name
  {0baab997-d23a-4c61-87c1-94db77720953}, !- HVAC Component
  {d43e9b7a-c2bf-4871-9faf-032c7eaf575f}; !- Port 1

OS:PortList,
  {f1ba1d14-6279-4d29-ac25-d89608dc1c15}, !- Handle
  Port List 2,                            !- Name
  {0baab997-d23a-4c61-87c1-94db77720953}; !- HVAC Component

OS:Sizing:Zone,
  {2a3417b5-2697-43f2-bc8a-e35b16aaf69b}, !- Handle
  {0baab997-d23a-4c61-87c1-94db77720953}, !- Zone or ZoneList Name
  SupplyAirTemperature,                   !- Zone Cooling Design Supply Air Temperature Input Method
  12.8,                                   !- Zone Cooling Design Supply Air Temperature {C}
  11.11,                                  !- Zone Cooling Design Supply Air Temperature Difference {deltaC}
  SupplyAirTemperature,                   !- Zone Heating Design Supply Air Temperature Input Method
  40,                                     !- Zone Heating Design Supply Air Temperature {C}
  11.11,                                  !- Zone Heating Design Supply Air Temperature Difference {deltaC}
  0.0085,                                 !- Zone Cooling Design Supply Air Humidity Ratio {kg-H2O/kg-air}
  0.008,                                  !- Zone Heating Design Supply Air Humidity Ratio {kg-H2O/kg-air}
  ,                                       !- Zone Heating Sizing Factor
  ,                                       !- Zone Cooling Sizing Factor
  DesignDay,                              !- Cooling Design Air Flow Method
  ,                                       !- Cooling Design Air Flow Rate {m3/s}
  ,                                       !- Cooling Minimum Air Flow per Zone Floor Area {m3/s-m2}
  ,                                       !- Cooling Minimum Air Flow {m3/s}
  ,                                       !- Cooling Minimum Air Flow Fraction
  DesignDay,                              !- Heating Design Air Flow Method
  ,                                       !- Heating Design Air Flow Rate {m3/s}
  ,                                       !- Heating Maximum Air Flow per Zone Floor Area {m3/s-m2}
  ,                                       !- Heating Maximum Air Flow {m3/s}
  ,                                       !- Heating Maximum Air Flow Fraction
  ,                                       !- Design Zone Air Distribution Effectiveness in Cooling Mode
  ,                                       !- Design Zone Air Distribution Effectiveness in Heating Mode
  No,                                     !- Account for Dedicated Outdoor Air System
  NeutralSupplyAir,                       !- Dedicated Outdoor Air System Control Strategy
  autosize,                               !- Dedicated Outdoor Air Low Setpoint Temperature for Design {C}
  autosize;                               !- Dedicated Outdoor Air High Setpoint Temperature for Design {C}

OS:ZoneHVAC:EquipmentList,
  {7c620fce-1761-4fe6-a7d6-dae01f5519a7}, !- Handle
  Zone HVAC Equipment List 1,             !- Name
  {0baab997-d23a-4c61-87c1-94db77720953}, !- Thermal Zone
  {ae37e178-2c78-4b82-ade5-f115a746193b}, !- Zone Equipment 1
  1,                                      !- Zone Equipment Cooling Sequence 1
  1;                                      !- Zone Equipment Heating or No-Load Sequence 1

OS:Space,
  {ec2fffce-9038-4dca-9998-68f4de053af3}, !- Handle
  Retail Retail B end_a - Story Ground,   !- Name
  {db8fcd5c-f434-479b-be79-44c26678831c}, !- Space Type Name
  ,                                       !- Default Construction Set Name
  ,                                       !- Default Schedule Set Name
  -0,                                     !- Direction of Relative North {deg}
  -45.4393730029982,                      !- X Origin {m}
  -30.9275101585923,                      !- Y Origin {m}
  0,                                      !- Z Origin {m}
  {07196ac1-8fe9-46fb-9444-1316cc093e07}, !- Building Story Name
  {a71f9210-715b-4477-90a3-bb44ff3f0d0d}; !- Thermal Zone Name

OS:Surface,
  {2c59b48a-6ea5-4f6e-ad02-5feae1572e9e}, !- Handle
  Surface 7,                              !- Name
  Floor,                                  !- Surface Type
  ,                                       !- Construction Name
  {ec2fffce-9038-4dca-9998-68f4de053af3}, !- Space Name
  Ground,                                 !- Outside Boundary Condition
  ,                                       !- Outside Boundary Condition Object
  NoSun,                                  !- Sun Exposure
  NoWind,                                 !- Wind Exposure
  ,                                       !- View Factor to Ground
  ,                                       !- Number of Vertices
  -2.1316282072803e-014, 3.19744231092045e-014, 0, !- X,Y,Z Vertex 1 {m}
  -2.1316282072803e-014, 61.8550203171846, 0, !- X,Y,Z Vertex 2 {m}
  4.57199999999998, 61.8550203171846, 0,  !- X,Y,Z Vertex 3 {m}
  4.57199999999998, 3.19744231092045e-014, 0; !- X,Y,Z Vertex 4 {m}

OS:Surface,
  {b5a2a5f1-0318-45e1-b0ab-cc85d14ac143}, !- Handle
  Surface 8,                              !- Name
  Wall,                                   !- Surface Type
  ,                                       !- Construction Name
  {ec2fffce-9038-4dca-9998-68f4de053af3}, !- Space Name
  Outdoors,                               !- Outside Boundary Condition
  ,                                       !- Outside Boundary Condition Object
  SunExposed,                             !- Sun Exposure
  WindExposed,                            !- Wind Exposure
  ,                                       !- View Factor to Ground
  ,                                       !- Number of Vertices
  -2.1316282072803e-014, 61.8550203171846, 6.096, !- X,Y,Z Vertex 1 {m}
  -2.1316282072803e-014, 61.8550203171846, 0, !- X,Y,Z Vertex 2 {m}
  -2.1316282072803e-014, 3.19744231092045e-014, 0, !- X,Y,Z Vertex 3 {m}
  -2.1316282072803e-014, 3.19744231092045e-014, 6.096; !- X,Y,Z Vertex 4 {m}

OS:Surface,
  {69212b44-2866-4dd5-8aaf-1d5192e30fd5}, !- Handle
  Surface 9,                              !- Name
  Wall,                                   !- Surface Type
  ,                                       !- Construction Name
  {ec2fffce-9038-4dca-9998-68f4de053af3}, !- Space Name
  Surface,                                !- Outside Boundary Condition
  {28c6056f-e8d1-4d78-a76d-1a25bedacf30}, !- Outside Boundary Condition Object
  NoSun,                                  !- Sun Exposure
  NoWind,                                 !- Wind Exposure
  ,                                       !- View Factor to Ground
  ,                                       !- Number of Vertices
  4.57199999999998, 61.8550203171846, 6.096, !- X,Y,Z Vertex 1 {m}