
OS:Version,
  {718d4bd5-b06b-4cb7-99ff-9d9c0f32c30b}, !- Handle
  2.1.0;                                  !- Version Identifier

OS:Facility,
  {f0738786-39fd-4ca1-875d-8474d65c3c83}; !- Handle

OS:SimulationControl,
  {36f37367-4eb9-45cf-aa0d-34d1f263ef83}; !- Handle

OS:Sizing:Parameters,
  {16841e5b-5ad3-48cf-add3-c1998815f030}, !- Handle
  1.25,                                   !- Heating Sizing Factor
  1.15;                                   !- Cooling Sizing Factor

OS:Timestep,
  {21214729-e067-4a99-8dff-b87aeb76aaaf}, !- Handle
  6;                                      !- Number of Timesteps per Hour

OS:ShadowCalculation,
  {8980e88f-cee6-4ecc-894d-914c4aa53f65}, !- Handle
  20,                                     !- Calculation Frequency
  15000;                                  !- Maximum Figures in Shadow Overlap Calculations

OS:HeatBalanceAlgorithm,
  {503433ca-040e-4fca-b759-c3182aa8d01c}, !- Handle
  ConductionTransferFunction,             !- Algorithm
  200;                                    !- Surface Temperature Upper Limit {C}

OS:RunPeriod,
  {35a0e6a1-4030-4b62-92d7-81e9c8dcf36d}, !- Handle
  Run Period 1,                           !- Name
  1,                                      !- Begin Month
  1,                                      !- Begin Day of Month
  12,                                     !- End Month
  31,                                     !- End Day of Month
  ,                                       !- Use Weather File Holidays and Special Days
  ,                                       !- Use Weather File Daylight Saving Period
  ,                                       !- Apply Weekend Holiday Rule
  ,                                       !- Use Weather File Rain Indicators
  ,                                       !- Use Weather File Snow Indicators
  ;                                       !- Number of Times Runperiod to be Repeated

OS:LifeCycleCost:Parameters,
  {0780f580-a29d-4682-b9b3-b7952c77464d}, !- Handle
  ,                                       !- Analysis Type
  ,                                       !- Discounting Convention
  ,                                       !- Inflation Approach
  ,                                       !- Real Discount Rate
  ,                                       !- Nominal Discount Rate
  ,                                       !- Inflation
  ,                                       !- Base Date Month
  ,                                       !- Base Date Year
  ,                                       !- Service Date Month
  ,                                       !- Service Date Year
  ;                                       !- Length of Study Period in Years

OS:WeatherFile,
  {0f7e03f5-3bf7-4481-bf65-d9a992e63e2a}, !- Handle
  Climate Zone 3,                         !- City
  CA,                                     !- State Province Region
  USA,                                    !- Country
  CTZRV2,                                 !- Data Source
  724930,                                 !- WMO Number
  37.7,                                   !- Latitude {deg}
  -122.2,                                 !- Longitude {deg}
  -8,                                     !- Time Zone {hr}
  2,                                      !- Elevation {m}
  file:///D:/Sites/OpenStudio-measures/NREL_integration_testing/weather/CZ03RV2.epw, !- Url
  ;                                       !- Checksum

OS:Site,
  {6e944de4-6021-44e7-9857-e90c990f7dab}, !- Handle
  Climate Zone 3_CA_USA,                  !- Name
  37.7,                                   !- Latitude {deg}
  -122.2,                                 !- Longitude {deg}
  -8,                                     !- Time Zone {hr}
  2,                                      !- Elevation {m}
  ;                                       !- Terrain

OS:ClimateZones,
  {76b3a8e2-0dac-4a7e-b88d-1dc0135593df}, !- Handle
  ,                                       !- Active Institution
  ,                                       !- Active Year
  ,                                       !- Climate Zone Institution Name 1
  ,                                       !- Climate Zone Document Name 1
  ,                                       !- Climate Zone Document Year 1
  ,                                       !- Climate Zone Value 1
  CEC,                                    !- Climate Zone Institution Name 2
  California Climate Zone Descriptions,   !- Climate Zone Document Name 2
  1995,                                   !- Climate Zone Document Year 2
  CEC3;                                   !- Climate Zone Value 2

OS:Site:WaterMainsTemperature,
  {e68a40b1-2cf8-425e-87b7-25e7ed037b2d}, !- Handle
  Correlation,                            !- Calculation Method
  ,                                       !- Temperature Schedule Name
  14.1416666666667,                       !- Annual Average Outdoor Air Temperature {C}
  7.8;                                    !- Maximum Difference In Monthly Average Outdoor Air Temperatures {deltaC}

OS:SizingPeriod:DesignDay,
  {6af62aa1-b1ec-45d1-9d9a-eb7a407f743c}, !- Handle
  Climate Zone 3 Ann Htg 99.6% Condns DB, !- Name
  2.9,                                    !- Maximum Dry-Bulb Temperature {C}
  0,                                      !- Daily Dry-Bulb Temperature Range {deltaC}
  2.9,                                    !- Humidity Indicating Conditions at Maximum Dry-Bulb
  101301,                                 !- Barometric Pressure {Pa}
  2.2,                                    !- Wind Speed {m/s}
  50,                                     !- Wind Direction {deg}
  0,                                      !- Sky Clearness
  0,                                      !- Rain Indicator
  0,                                      !- Snow Indicator
  21,                                     !- Day of Month
  1,                                      !- Month
  WinterDesignDay,                        !- Day Type
  0,                                      !- Daylight Saving Time Indicator
  Wetbulb,                                !- Humidity Indicating Type
  ,                                       !- Humidity Indicating Day Schedule Name
  DefaultMultipliers,                     !- Dry-Bulb Temperature Range Modifier Type
  ,                                       !- Dry-Bulb Temperature Range Modifier Schedule Name
  ASHRAEClearSky;                         !- Solar Model Indicator

OS:SizingPeriod:DesignDay,
  {fa1dec5b-5411-488d-bd9d-4f44aaffa43a}, !- Handle
  Climate Zone 3 Ann Clg .4% Condns DB=>MWB, !- Name
  27.7,                                   !- Maximum Dry-Bulb Temperature {C}
  7.4,                                    !- Daily Dry-Bulb Temperature Range {deltaC}
  18.3,                                   !- Humidity Indicating Conditions at Maximum Dry-Bulb
  101301,                                 !- Barometric Pressure {Pa}
  4.9,                                    !- Wind Speed {m/s}
  290,                                    !- Wind Direction {deg}
  0,                                      !- Sky Clearness
  0,                                      !- Rain Indicator
  0,                                      !- Snow Indicator
  21,                                     !- Day of Month
  8,                                      !- Month
  SummerDesignDay,                        !- Day Type
  0,                                      !- Daylight Saving Time Indicator
  Wetbulb,                                !- Humidity Indicating Type
  ,                                       !- Humidity Indicating Day Schedule Name
  DefaultMultipliers,                     !- Dry-Bulb Temperature Range Modifier Type
  ,                                       !- Dry-Bulb Temperature Range Modifier Schedule Name
  ASHRAETau,                              !- Solar Model Indicator
  ,                                       !- Beam Solar Day Schedule Name
  ,                                       !- Diffuse Solar Day Schedule Name
  0.367,                                  !- ASHRAE Taub {dimensionless}
  2.428;                                  !- ASHRAE Taud {dimensionless}

OS:SizingPeriod:DesignDay,
  {d591ace6-0b55-4ce1-b6dd-ba9100ce349a}, !- Handle
  Climate Zone 3 Ann Clg .4% Condns WB=>MDB, !- Name
  25.5,                                   !- Maximum Dry-Bulb Temperature {C}
  7.4,                                    !- Daily Dry-Bulb Temperature Range {deltaC}
  19.8,                                   !- Humidity Indicating Conditions at Maximum Dry-Bulb
  101301,                                 !- Barometric Pressure {Pa}
  4.9,                                    !- Wind Speed {m/s}
  290,                                    !- Wind Direction {deg}
  0,                                      !- Sky Clearness
  0,                                      !- Rain Indicator
  0,                                      !- Snow Indicator
  21,                                     !- Day of Month
  8,                                      !- Month
  SummerDesignDay,                        !- Day Type
  0,                                      !- Daylight Saving Time Indicator
  Wetbulb,                                !- Humidity Indicating Type
  ,                                       !- Humidity Indicating Day Schedule Name
  DefaultMultipliers,                     !- Dry-Bulb Temperature Range Modifier Type
  ,                                       !- Dry-Bulb Temperature Range Modifier Schedule Name
  ASHRAETau,                              !- Solar Model Indicator
  ,                                       !- Beam Solar Day Schedule Name
  ,                                       !- Diffuse Solar Day Schedule Name
  0.367,                                  !- ASHRAE Taub {dimensionless}
  2.428;                                  !- ASHRAE Taud {dimensionless}

OS:SpaceType,
  {914ae0f7-2176-435b-aa30-1c6c13b9fcb9}, !- Handle
  Retail Back_Space - CEC T24 2001,       !- Name
  ,                                       !- Default Construction Set Name
  {3db2784e-c2c5-4983-adfd-63c0e24d6ddf}, !- Default Schedule Set Name
  {660d66aa-abe0-439a-99fd-56d000c2c413}, !- Group Rendering Name
  {57cb3136-788a-40bd-be00-96efff88bc8e}, !- Design Specification Outdoor Air Object Name
  Retail,                                 !- Standards Building Type
  Back_Space;                             !- Standards Space Type

OS:Rendering:Color,
  {660d66aa-abe0-439a-99fd-56d000c2c413}, !- Handle
  Rendering Color 1,                      !- Name
  120,                                    !- Rendering Red Value
  149,                                    !- Rendering Green Value
  230;                                    !- Rendering Blue Value

OS:SpaceType,
  {f9b68a10-5a54-49a7-958f-029ac7e490dd}, !- Handle
  Retail Entry - CEC T24 2001,            !- Name
  ,                                       !- Default Construction Set Name
  {7cb2b278-03bc-4e10-8379-7144a713fd3f}, !- Default Schedule Set Name
  {5e423ab3-dfdc-4f2d-b296-0a1a9b10eea4}, !- Group Rendering Name
  {2e74c913-47da-4be4-97d5-c2423450355d}, !- Design Specification Outdoor Air Object Name
  Retail,                                 !- Standards Building Type
  Entry;                                  !- Standards Space Type

OS:Rendering:Color,
  {5e423ab3-dfdc-4f2d-b296-0a1a9b10eea4}, !- Handle
  Rendering Color 2,                      !- Name
  169,                                    !- Rendering Red Value
  31,                                     !- Rendering Green Value
  31;                                     !- Rendering Blue Value

OS:SpaceType,
  {b562abf5-6bf3-47b4-9820-aba59d570284}, !- Handle
  Retail Point_of_Sale - CEC T24 2001,    !- Name
  ,                                       !- Default Construction Set Name
  {8257e47b-6552-408a-ae00-588e459a3f61}, !- Default Schedule Set Name
  {09676d8a-78f9-4a24-9862-5575eb972f09}, !- Group Rendering Name
  {606ac6a6-db0e-4362-9f79-191e0f8eca67}, !- Design Specification Outdoor Air Object Name
  Retail,                                 !- Standards Building Type
  Point_of_Sale;                          !- Standards Space Type

OS:Rendering:Color,
  {09676d8a-78f9-4a24-9862-5575eb972f09}, !- Handle
  Rendering Color 3,                      !- Name
  171,                                    !- Rendering Red Value
  222,                                    !- Rendering Green Value
  78;                                     !- Rendering Blue Value

OS:SpaceType,
  {88c83ab4-7ccc-455f-926e-f31ebf9b543c}, !- Handle
  Retail Retail - CEC T24 2001,           !- Name
  ,                                       !- Default Construction Set Name
  {0604d979-490b-4690-a9a6-e5226c61dbb0}, !- Default Schedule Set Name
  {d9a3aa7d-738a-4bd6-bad0-030013764b2a}, !- Group Rendering Name
  {3bd128e6-1b15-412b-906a-1e253aa69018}, !- Design Specification Outdoor Air Object Name
  Retail,                                 !- Standards Building Type
  Retail;                                 !- Standards Space Type

OS:Rendering:Color,
  {d9a3aa7d-738a-4bd6-bad0-030013764b2a}, !- Handle
  Rendering Color 4,                      !- Name
  171,                                    !- Rendering Red Value
  222,                                    !- Rendering Green Value
  78;                                     !- Rendering Blue Value

OS:Building,
  {019b19c4-aa50-4b44-b649-c7bf8945b358}, !- Handle
  CEC T24 2001|RetailStandalone,          !- Name
  ,                                       !- Building Sector Type
  ,                                       !- North Axis {deg}
  ,                                       !- Nominal Floor to Floor Height {m}
  ,                                       !- Space Type Name
  {f2a4a929-1800-453f-8708-f293bf5232c3}, !- Default Construction Set Name
  ,                                       !- Default Schedule Set Name
  ,                                       !- Standards Number of Stories
  ,                                       !- Standards Number of Above Ground Stories
  Retail;                                 !- Standards Building Type

OS:BuildingStory,
  {8b18461d-56f0-434c-8b5c-7463a92a4195}, !- Handle
  Story Ground,                           !- Name
  0,                                      !- Nominal Z Coordinate {m}
  6.096,                                  !- Nominal Floor to Floor Height {m}
  ,                                       !- Default Construction Set Name
  ,                                       !- Default Schedule Set Name
  ;                                       !- Group Rendering Name

OS:Space,
  {be2c999c-0f2e-4191-81f8-b8ba5957f58f}, !- Handle
  Retail Retail A end_a - Story Ground,   !- Name
  {88c83ab4-7ccc-455f-926e-f31ebf9b543c}, !- Space Type Name
  ,                                       !- Default Construction Set Name
  ,                                       !- Default Schedule Set Name
  -0,                                     !- Direction of Relative North {deg}
  -45.4393730029982,                      !- X Origin {m}
  -35.4995101585923,                      !- Y Origin {m}
  0,                                      !- Z Origin {m}
  {8b18461d-56f0-434c-8b5c-7463a92a4195}, !- Building Story Name
  {c18ea04a-e81f-4215-8770-a8fb290b5312}; !- Thermal Zone Name

OS:Surface,
  {72e8fa6a-33af-4df1-a488-3e83dc73809d}, !- Handle
  Surface 1,                              !- Name
  Floor,                                  !- Surface Type
  ,                                       !- Construction Name
  {be2c999c-0f2e-4191-81f8-b8ba5957f58f}, !- Space Name
  Ground,                                 !- Outside Boundary Condition
  ,                                       !- Outside Boundary Condition Object
  NoSun,                                  !- Sun Exposure
  NoWind,                                 !- Wind Exposure
  ,                                       !- View Factor to Ground
  ,                                       !- Number of Vertices
  -2.1316282072803e-014, 2.8421709430404e-014, 0, !- X,Y,Z Vertex 1 {m}
  -2.1316282072803e-014, 4.57200000000003, 0, !- X,Y,Z Vertex 2 {m}
  4.57199999999998, 4.57200000000003, 0,  !- X,Y,Z Vertex 3 {m}
  4.57199999999998, 2.8421709430404e-014, 0; !- X,Y,Z Vertex 4 {m}

OS:Surface,
  {ba2f65ad-755c-4103-a78d-ab171d150202}, !- Handle
  Surface 2,                              !- Name
  Wall,                                   !- Surface Type
  ,                                       !- Construction Name
  {be2c999c-0f2e-4191-81f8-b8ba5957f58f}, !- Space Name
  Outdoors,                               !- Outside Boundary Condition
  ,                                       !- Outside Boundary Condition Object
  SunExposed,                             !- Sun Exposure
  WindExposed,                            !- Wind Exposure
  ,                                       !- View Factor to Ground
  ,                                       !- Number of Vertices
  -2.1316282072803e-014, 4.57200000000003, 6.096, !- X,Y,Z Vertex 1 {m}
  -2.1316282072803e-014, 4.57200000000003, 0, !- X,Y,Z Vertex 2 {m}
  -2.1316282072803e-014, 2.8421709430404e-014, 0, !- X,Y,Z Vertex 3 {m}
  -2.1316282072803e-014, 2.8421709430404e-014, 6.096; !- X,Y,Z Vertex 4 {m}

OS:Surface,
  {2d754431-8f04-413f-aec0-f18af8d75876}, !- Handle
  Surface 3,                              !- Name
  Wall,                                   !- Surface Type
  ,                                       !- Construction Name
  {be2c999c-0f2e-4191-81f8-b8ba5957f58f}, !- Space Name
  Surface,                                !- Outside Boundary Condition
  {f9d68116-5052-47e5-b0eb-cd427ca2c37e}, !- Outside Boundary Condition Object
  NoSun,                                  !- Sun Exposure
  NoWind,                                 !- Wind Exposure
  ,                                       !- View Factor to Ground
  ,                                       !- Number of Vertices
  4.57199999999998, 4.57200000000003, 6.096, !- X,Y,Z Vertex 1 {m}
  4.57199999999998, 4.57200000000003, 0,  !- X,Y,Z Vertex 2 {m}
  -2.1316282072803e-014, 4.57200000000003, 0, !- X,Y,Z Vertex 3 {m}
  -2.1316282072803e-014, 4.57200000000003, 6.096; !- X,Y,Z Vertex 4 {m}

OS:Surface,
  {ee686331-701b-4f13-a014-6c8f98bd8d3b}, !- Handle
  Surface 4,                              !- Name
  Wall,                                   !- Surface Type
  ,                                       !- Construction Name
  {be2c999c-0f2e-4191-81f8-b8ba5957f58f}, !- Space Name
  Surface,                                !- Outside Boundary Condition
  {9e41c361-bf3c-411c-ab47-01ad99933b3d}, !- Outside Boundary Condition Object
  NoSun,                                  !- Sun Exposure
  NoWind,                                 !- Wind Exposure
  ,                                       !- View Factor to Ground
  ,                                       !- Number of Vertices
  4.57199999999998, 2.8421709430404e-014, 6.096, !- X,Y,Z Vertex 1 {m}
  4.57199999999998, 2.8421709430404e-014, 0, !- X,Y,Z Vertex 2 {m}
  4.57199999999998, 4.57200000000003, 0,  !- X,Y,Z Vertex 3 {m}
  4.57199999999998, 4.57200000000003, 6.096; !- X,Y,Z Vertex 4 {m}

OS:Surface,
  {da7bb6d2-5cbb-465f-864c-9c94dca80f56}, !- Handle
  Surface 5,                              !- Name
  Wall,                                   !- Surface Type
  ,                                       !- Construction Name
  {be2c999c-0f2e-4191-81f8-b8ba5957f58f}, !- Space Name
  Outdoors,                               !- Outside Boundary Condition
  ,                                       !- Outside Boundary Condition Object
  SunExposed,                             !- Sun Exposure
  WindExposed,                            !- Wind Exposure
  ,                                       !- View Factor to Ground
  ,                                       !- Number of Vertices
  -2.1316282072803e-014, 2.8421709430404e-014, 6.096, !- X,Y,Z Vertex 1 {m}
  -2.1316282072803e-014, 2.8421709430404e-014, 0, !- X,Y,Z Vertex 2 {m}
  4.57199999999998, 2.8421709430404e-014, 0, !- X,Y,Z Vertex 3 {m}
  4.57199999999998, 2.8421709430404e-014, 6.096; !- X,Y,Z Vertex 4 {m}

OS:Surface,
  {70db10a3-7631-4ba9-aa95-b75cb2bc48e5}, !- Handle
  Surface 6,                              !- Name
  RoofCeiling,                            !- Surface Type
  ,                                       !- Construction Name
  {be2c999c-0f2e-4191-81f8-b8ba5957f58f}, !- Space Name
  Outdoors,                               !- Outside Boundary Condition
  ,                                       !- Outside Boundary Condition Object
  SunExposed,                             !- Sun Exposure
  WindExposed,                            !- Wind Exposure
  ,                                       !- View Factor to Ground
  ,                                       !- Number of Vertices
  4.57199999999998, 2.8421709430404e-014, 6.096, !- X,Y,Z Vertex 1 {m}
  4.57199999999998, 4.57200000000003, 6.096, !- X,Y,Z Vertex 2 {m}
  -2.1316282072803e-014, 4.57200000000003, 6.096, !- X,Y,Z Vertex 3 {m}
  -2.1316282072803e-014, 2.8421709430404e-014, 6.096; !- X,Y,Z Vertex 4 {m}

OS:ThermalZone,
  {c18ea04a-e81f-4215-8770-a8fb290b5312}, !- Handle
  Zone Retail Retail A end_a - Story Ground, !- Name
  1,                                      !- Multiplier
  ,                                       !- Ceiling Height {m}
  ,                                       !- Volume {m3}
  ,                                       !- Floor Area {m2}
  ,                                       !- Zone Inside Convection Algorithm
  ,                                       !- Zone Outside Convection Algorithm
  ,                                       !- Zone Conditioning Equipment List Name
  {b94c5c94-b2fb-4e1e-a5fc-3c3b57f744bc}, !- Zone Air Inlet Port List
  {c5e80891-8481-4418-9a42-7d0ed4c2977c}, !- Zone Air Exhaust Port List
  {a6f50b1b-140e-4f72-90aa-8be27a664a6e}, !- Zone Air Node Name
  {069836c6-9f2c-4158-b7b8-462d46ea24ad}, !- Zone Return Air Node Name
  ,                                       !- Primary Daylighting Control Name
  ,                                       !- Fraction of Zone Controlled by Primary Daylighting Control
  ,                                       !- Secondary Daylighting Control Name
  ,                                       !- Fraction of Zone Controlled by Secondary Daylighting Control
  ,                                       !- Illuminance Map Name
  ,                                       !- Group Rendering Name
  {3b4b0b04-0eda-4dc5-96b0-674cf75e8b81}, !- Thermostat Name
  No;                                     !- Use Ideal Air Loads

OS:Node,
  {c3987933-cbf5-4f73-8b94-781cf34992a3}, !- Handle
  Node 1,                                 !- Name
  {a6f50b1b-140e-4f72-90aa-8be27a664a6e}, !- Inlet Port
  ;                                       !- Outlet Port

OS:Connection,
  {a6f50b1b-140e-4f72-90aa-8be27a664a6e}, !- Handle
  {bca68298-4908-4d29-81e9-4d641e216d47}, !- Name
  {c18ea04a-e81f-4215-8770-a8fb290b5312}, !- Source Object
  11,                                     !- Outlet Port
  {c3987933-cbf5-4f73-8b94-781cf34992a3}, !- Target Object
  2;                                      !- Inlet Port

OS:PortList,
  {b94c5c94-b2fb-4e1e-a5fc-3c3b57f744bc}, !- Handle
  Port List 1,                            !- Name
  {c18ea04a-e81f-4215-8770-a8fb290b5312}, !- HVAC Component
  {e4468f1e-9dd9-4ac6-9850-d9aefbb3aa50}; !- Port 1

OS:PortList,
  {c5e80891-8481-4418-9a42-7d0ed4c2977c}, !- Handle
  Port List 2,                            !- Name
  {c18ea04a-e81f-4215-8770-a8fb290b5312}; !- HVAC Component

OS:Sizing:Zone,
  {caf22769-c5ef-4829-993d-a258b9068208}, !- Handle
  {c18ea04a-e81f-4215-8770-a8fb290b5312}, !- Zone or ZoneList Name
  SupplyAirTemperature,                   !- Zone Cooling Design Supply Air Temperature Input Method
  12.8,                                   !- Zone Cooling Design Supply Air Temperature {C}
  11.11,                                  !- Zone Cooling Design Supply Air Temperature Difference {deltaC}
  SupplyAirTemperature,                   !- Zone Heating Design Supply Air Temperature Input Method
  40,                                     !- Zone Heating Design Supply Air Temperature {C}
  11.11,                                  !- Zone Heating Design Supply Air Temperature Difference {deltaC}
  0.0085,                                 !- Zone Cooling Design Supply Air Humidity Ratio {kg-H2O/kg-air}
  0.008,                                  !- Zone Heating Design Supply Air Humidity Ratio {kg-H2O/kg-air}
  ,                                       !- Zone Heating Sizing Factor
  ,                                       !- Zone Cooling Sizing Factor
  DesignDay,                              !- Cooling Design Air Flow Method
  ,                                       !- Cooling Design Air Flow Rate {m3/s}
  ,                                       !- Cooling Minimum Air Flow per Zone Floor Area {m3/s-m2}
  ,                                       !- Cooling Minimum Air Flow {m3/s}
  ,                                       !- Cooling Minimum Air Flow Fraction
  DesignDay,                              !- Heating Design Air Flow Method
  ,                                       !- Heating Design Air Flow Rate {m3/s}
  ,                                       !- Heating Maximum Air Flow per Zone Floor Area {m3/s-m2}
  ,                                       !- Heating Maximum Air Flow {m3/s}
  ,                                       !- Heating Maximum Air Flow Fraction
  ,                                       !- Design Zone Air Distribution Effectiveness in Cooling Mode
  ,                                       !- Design Zone Air Distribution Effectiveness in Heating Mode
  No,                                     !- Account for Dedicated Outdoor Air System
  NeutralSupplyAir,                       !- Dedicated Outdoor Air System Control Strategy
  autosize,                               !- Dedicated Outdoor Air Low Setpoint Temperature for Design {C}
  autosize;                               !- Dedicated Outdoor Air High Setpoint Temperature for Design {C}

OS:ZoneHVAC:EquipmentList,
  {ec4ac615-37d0-4889-92d0-da7ec9c29d1a}, !- Handle
  Zone HVAC Equipment List 1,             !- Name
  {c18ea04a-e81f-4215-8770-a8fb290b5312}, !- Thermal Zone
  {2ff9ec04-615d-46e8-a4ec-82e1a2ae0d17}, !- Zone Equipment 1
  1,                                      !- Zone Equipment Cooling Sequence 1
  1;                                      !- Zone Equipment Heating or No-Load Sequence 1

OS:Space,
  {8fbd472f-3cf9-4120-96a9-5fb188c7b0be}, !- Handle
  Retail Retail B end_a - Story Ground,   !- Name
  {88c83ab4-7ccc-455f-926e-f31ebf9b543c}, !- Space Type Name
  ,                                       !- Default Construction Set Name
  ,                                       !- Default Schedule Set Name
  -0,                                     !- Direction of Relative North {deg}
  -45.4393730029982,                      !- X Origin {m}
  -30.9275101585923,                      !- Y Origin {m}
  0,                                      !- Z Origin {m}
  {8b18461d-56f0-434c-8b5c-7463a92a4195}, !- Building Story Name
  {e5e11683-7981-4616-a5be-ad232d2d07cd}; !- Thermal Zone Name

OS:Surface,
  {946c856c-b954-4c3e-9b0c-8462b31f4fef}, !- Handle
  Surface 7,                              !- Name
  Floor,                                  !- Surface Type
  ,                                       !- Construction Name
  {8fbd472f-3cf9-4120-96a9-5fb188c7b0be}, !- Space Name
  Ground,                                 !- Outside Boundary Condition
  ,                                       !- Outside Boundary Condition Object
  NoSun,                                  !- Sun Exposure
  NoWind,                                 !- Wind Exposure
  ,                                       !- View Factor to Ground
  ,                                       !- Number of Vertices
  -2.1316282072803e-014, 3.19744231092045e-014, 0, !- X,Y,Z Vertex 1 {m}
  -2.1316282072803e-014, 61.8550203171846, 0, !- X,Y,Z Vertex 2 {m}
  4.57199999999998, 61.8550203171846, 0,  !- X,Y,Z Vertex 3 {m}
  4.57199999999998, 3.19744231092045e-014, 0; !- X,Y,Z Vertex 4 {m}

OS:Surface,
  {17d92406-09ec-4977-9f25-714c1f08bfa5}, !- Handle
  Surface 8,                              !- Name
  Wall,                                   !- Surface Type
  ,                                       !- Construction Name
  {8fbd472f-3cf9-4120-96a9-5fb188c7b0be}, !- Space Name
  Outdoors,                               !- Outside Boundary Condition
  ,                                       !- Outside Boundary Condition Object
  SunExposed,                             !- Sun Exposure
  WindExposed,                            !- Wind Exposure
  ,                                       !- View Factor to Ground
  ,                                       !- Number of Vertices
  -2.1316282072803e-014, 61.8550203171846, 6.096, !- X,Y,Z Vertex 1 {m}
  -2.1316282072803e-014, 61.8550203171846, 0, !- X,Y,Z Vertex 2 {m}
  -2.1316282072803e-014, 3.19744231092045e-014, 0, !- X,Y,Z Vertex 3 {m}
  -2.1316282072803e-014, 3.19744231092045e-014, 6.096; !- X,Y,Z Vertex 4 {m}

OS:Surface,
  {e363554d-21b8-40cb-a771-9a230a579ddb}, !- Handle
  Surface 9,                              !- Name
  Wall,                                   !- Surface Type
  ,                                       !- Construction Name
  {8fbd472f-3cf9-4120-96a9-5fb188c7b0be}, !- Space Name
  Surface,                                !- Outside Boundary Condition
  {2bc1b180-e5f7-4b90-a98d-d737f706ba2b}, !- Outside Boundary Condition Object
  NoSun,                                  !- Sun Exposure
  NoWind,                                 !- Wind Exposure
  ,                                       !- View Factor to Ground
  ,                                       !- Number of Vertices
  4.57199999999998, 61.8550203171846, 6.096, !- X,Y,Z Vertex 1 {m}