
OS:Version,
  {404e916d-a1d8-46fc-ac19-f3d5a915680b}, !- Handle
  2.1.0;                                  !- Version Identifier

OS:Facility,
  {700656bb-fdc9-4380-a6ee-5a6c3f1feb2f}; !- Handle

OS:SimulationControl,
  {a20a4acd-f09b-40a2-9084-5f3e97574a59}, !- Handle
  ,                                       !- Do Zone Sizing Calculation
  ,                                       !- Do System Sizing Calculation
  ,                                       !- Do Plant Sizing Calculation
  Yes,                                    !- Run Simulation for Sizing Periods
  No;                                     !- Run Simulation for Weather File Run Periods

OS:Sizing:Parameters,
  {bcc42c2a-5623-4269-88fd-a3d33851afdd}, !- Handle
  1.25,                                   !- Heating Sizing Factor
  1.15;                                   !- Cooling Sizing Factor

OS:Timestep,
  {baf69f11-aa12-483d-9b71-6dec198d22c0}, !- Handle
  6;                                      !- Number of Timesteps per Hour

OS:ShadowCalculation,
  {84e47225-2927-438c-83ac-91bb9da7c71c}, !- Handle
  20,                                     !- Calculation Frequency
  15000;                                  !- Maximum Figures in Shadow Overlap Calculations

OS:HeatBalanceAlgorithm,
  {ad1e06c5-993f-4126-a5b8-830b2ae2769c}, !- Handle
  ConductionTransferFunction,             !- Algorithm
  200;                                    !- Surface Temperature Upper Limit {C}

OS:RunPeriod,
  {25fc69d4-d160-4f26-8058-282b63c5724d}, !- Handle
  Run Period 1,                           !- Name
  1,                                      !- Begin Month
  1,                                      !- Begin Day of Month
  12,                                     !- End Month
  31,                                     !- End Day of Month
  ,                                       !- Use Weather File Holidays and Special Days
  ,                                       !- Use Weather File Daylight Saving Period
  ,                                       !- Apply Weekend Holiday Rule
  ,                                       !- Use Weather File Rain Indicators
  ,                                       !- Use Weather File Snow Indicators
  ;                                       !- Number of Times Runperiod to be Repeated

OS:LifeCycleCost:Parameters,
  {b3ae58a3-1ec3-4881-8c34-1246b298e4e8}, !- Handle
  ,                                       !- Analysis Type
  ,                                       !- Discounting Convention
  ,                                       !- Inflation Approach
  ,                                       !- Real Discount Rate
  ,                                       !- Nominal Discount Rate
  ,                                       !- Inflation
  ,                                       !- Base Date Month
  ,                                       !- Base Date Year
  ,                                       !- Service Date Month
  ,                                       !- Service Date Year
  ;                                       !- Length of Study Period in Years

OS:WeatherFile,
  {cfccfcdd-3e90-4a5d-9372-3ba870743fee}, !- Handle
  Climate Zone 3,                         !- City
  CA,                                     !- State Province Region
  USA,                                    !- Country
  CTZRV2,                                 !- Data Source
  724930,                                 !- WMO Number
  37.7,                                   !- Latitude {deg}
  -122.2,                                 !- Longitude {deg}
  -8,                                     !- Time Zone {hr}
  2,                                      !- Elevation {m}
  file:///C:/Sites/bricr/weather/CZ03RV2.epw, !- Url
  ;                                       !- Checksum

OS:Site,
  {02edc469-5540-421b-96f1-4582076eb9f4}, !- Handle
  Climate Zone 3_CA_USA,                  !- Name
  37.7,                                   !- Latitude {deg}
  -122.2,                                 !- Longitude {deg}
  -8,                                     !- Time Zone {hr}
  2,                                      !- Elevation {m}
  ;                                       !- Terrain

OS:Site:WaterMainsTemperature,
  {27eb42de-80f3-422d-b38b-d2f5c2e8e950}, !- Handle
  Correlation,                            !- Calculation Method
  ,                                       !- Temperature Schedule Name
  14.1416666666667,                       !- Annual Average Outdoor Air Temperature {C}
  7.8;                                    !- Maximum Difference In Monthly Average Outdoor Air Temperatures {deltaC}

OS:SizingPeriod:DesignDay,
  {c87363f3-72d2-42f5-a73b-fa7b3696dadc}, !- Handle
  Climate Zone 3 Ann Clg .4% Condns DB=>MWB, !- Name
  27.7,                                   !- Maximum Dry-Bulb Temperature {C}
  7.4,                                    !- Daily Dry-Bulb Temperature Range {deltaC}
  18.3,                                   !- Humidity Indicating Conditions at Maximum Dry-Bulb
  101301,                                 !- Barometric Pressure {Pa}
  4.9,                                    !- Wind Speed {m/s}
  290,                                    !- Wind Direction {deg}
  0,                                      !- Sky Clearness
  0,                                      !- Rain Indicator
  0,                                      !- Snow Indicator
  21,                                     !- Day of Month
  8,                                      !- Month
  SummerDesignDay,                        !- Day Type
  0,                                      !- Daylight Saving Time Indicator
  Wetbulb,                                !- Humidity Indicating Type
  ,                                       !- Humidity Indicating Day Schedule Name
  DefaultMultipliers,                     !- Dry-Bulb Temperature Range Modifier Type
  ,                                       !- Dry-Bulb Temperature Range Modifier Schedule Name
  ASHRAETau,                              !- Solar Model Indicator
  ,                                       !- Beam Solar Day Schedule Name
  ,                                       !- Diffuse Solar Day Schedule Name
  0.367,                                  !- ASHRAE Taub {dimensionless}
  2.428;                                  !- ASHRAE Taud {dimensionless}

OS:SizingPeriod:DesignDay,
  {34f82df5-dac2-4b33-a5ec-d706f34a73a6}, !- Handle
  Climate Zone 3 Ann Clg .4% Condns WB=>MDB, !- Name
  25.5,                                   !- Maximum Dry-Bulb Temperature {C}
  7.4,                                    !- Daily Dry-Bulb Temperature Range {deltaC}
  19.8,                                   !- Humidity Indicating Conditions at Maximum Dry-Bulb
  101301,                                 !- Barometric Pressure {Pa}
  4.9,                                    !- Wind Speed {m/s}
  290,                                    !- Wind Direction {deg}
  0,                                      !- Sky Clearness
  0,                                      !- Rain Indicator
  0,                                      !- Snow Indicator
  21,                                     !- Day of Month
  8,                                      !- Month
  SummerDesignDay,                        !- Day Type
  0,                                      !- Daylight Saving Time Indicator
  Wetbulb,                                !- Humidity Indicating Type
  ,                                       !- Humidity Indicating Day Schedule Name
  DefaultMultipliers,                     !- Dry-Bulb Temperature Range Modifier Type
  ,                                       !- Dry-Bulb Temperature Range Modifier Schedule Name
  ASHRAETau,                              !- Solar Model Indicator
  ,                                       !- Beam Solar Day Schedule Name
  ,                                       !- Diffuse Solar Day Schedule Name
  0.367,                                  !- ASHRAE Taub {dimensionless}
  2.428;                                  !- ASHRAE Taud {dimensionless}

OS:SizingPeriod:DesignDay,
  {a0821443-0cfe-44d3-ba23-dd64c6067e50}, !- Handle
  Climate Zone 3 Ann Htg 99.6% Condns DB, !- Name
  2.9,                                    !- Maximum Dry-Bulb Temperature {C}
  0,                                      !- Daily Dry-Bulb Temperature Range {deltaC}
  2.9,                                    !- Humidity Indicating Conditions at Maximum Dry-Bulb
  101301,                                 !- Barometric Pressure {Pa}
  2.2,                                    !- Wind Speed {m/s}
  50,                                     !- Wind Direction {deg}
  0,                                      !- Sky Clearness
  0,                                      !- Rain Indicator
  0,                                      !- Snow Indicator
  21,                                     !- Day of Month
  1,                                      !- Month
  WinterDesignDay,                        !- Day Type
  0,                                      !- Daylight Saving Time Indicator
  Wetbulb,                                !- Humidity Indicating Type
  ,                                       !- Humidity Indicating Day Schedule Name
  DefaultMultipliers,                     !- Dry-Bulb Temperature Range Modifier Type
  ,                                       !- Dry-Bulb Temperature Range Modifier Schedule Name
  ASHRAEClearSky;                         !- Solar Model Indicator

OS:ClimateZones,
  {37bf4490-7e65-4cfb-8d5b-ac043f0b5a61}, !- Handle
  ,                                       !- Active Institution
  ,                                       !- Active Year
  ,                                       !- Climate Zone Institution Name 1
  ,                                       !- Climate Zone Document Name 1
  ,                                       !- Climate Zone Document Year 1
  ,                                       !- Climate Zone Value 1
  CEC,                                    !- Climate Zone Institution Name 2
  California Climate Zone Descriptions,   !- Climate Zone Document Name 2
  1995,                                   !- Climate Zone Document Year 2
  CEC3;                                   !- Climate Zone Value 2

OS:SpaceType,
  {fb2f4c6a-57bd-46b3-869c-43616b75586f}, !- Handle
  Office WholeBuilding - Md Office - CEC Pre-1978, !- Name
  ,                                       !- Default Construction Set Name
  {1fe2ef19-e3e7-4f35-9cf7-940457c1e569}, !- Default Schedule Set Name
  ,                                       !- Group Rendering Name
  {5b27aba5-e2d2-4b57-8156-796431daab8c}, !- Design Specification Outdoor Air Object Name
  Office,                                 !- Standards Building Type
  WholeBuilding - Md Office;              !- Standards Space Type

OS:Building,
  {fdf07ffe-badd-4453-8add-d4e6c9edb9de}, !- Handle
  CEC Pre-1978|MediumOffice,              !- Name
  ,                                       !- Building Sector Type
  ,                                       !- North Axis {deg}
  ,                                       !- Nominal Floor to Floor Height {m}
  {fb2f4c6a-57bd-46b3-869c-43616b75586f}, !- Space Type Name
  {8a56e77c-1e96-47bf-97a6-d3041fbc5ea2}, !- Default Construction Set Name
  ,                                       !- Default Schedule Set Name
  ,                                       !- Standards Number of Stories
  ,                                       !- Standards Number of Above Ground Stories
  Office;                                 !- Standards Building Type

OS:BuildingStory,
  {e78052d6-42fd-40e9-a57f-76fae636c69a}, !- Handle
  Story Ground,                           !- Name
  0,                                      !- Nominal Z Coordinate {m}
  3.9624,                                 !- Nominal Floor to Floor Height {m}
  ,                                       !- Default Construction Set Name
  ,                                       !- Default Schedule Set Name
  ;                                       !- Group Rendering Name

OS:Space,
  {e35bbfc2-c7f9-4be7-8a3b-19d9b94beba9}, !- Handle
  West Perimeter Space - Story Ground,    !- Name
  ,                                       !- Space Type Name
  ,                                       !- Default Construction Set Name
  ,                                       !- Default Schedule Set Name
  -0,                                     !- Direction of Relative North {deg}
  -24.9508170415319,                      !- X Origin {m}
  -16.633878027688,                       !- Y Origin {m}
  0,                                      !- Z Origin {m}
  {e78052d6-42fd-40e9-a57f-76fae636c69a}, !- Building Story Name
  {4b9285bb-58d5-4ad8-ba91-7f32e9763413}; !- Thermal Zone Name

OS:Surface,
  {34fce4a1-208e-48f3-aa64-abefdd45fb20}, !- Handle
  Surface 1,                              !- Name
  Floor,                                  !- Surface Type
  ,                                       !- Construction Name
  {e35bbfc2-c7f9-4be7-8a3b-19d9b94beba9}, !- Space Name
  Ground,                                 !- Outside Boundary Condition
  ,                                       !- Outside Boundary Condition Object
  NoSun,                                  !- Sun Exposure
  NoWind,                                 !- Wind Exposure
  ,                                       !- View Factor to Ground
  ,                                       !- Number of Vertices
  2.8421709430404e-014, -4.61852778244065e-014, 0, !- X,Y,Z Vertex 1 {m}
  2.8421709430404e-014, 33.267756055376, 0, !- X,Y,Z Vertex 2 {m}
  4.57200000000003, 28.695756055376, 0,   !- X,Y,Z Vertex 3 {m}
  4.57200000000003, 4.57199999999995, 0;  !- X,Y,Z Vertex 4 {m}

OS:Surface,
  {af2ac920-d7a8-4ee2-b550-2a015c0d40ca}, !- Handle
  Surface 2,                              !- Name
  Wall,                                   !- Surface Type
  ,                                       !- Construction Name
  {e35bbfc2-c7f9-4be7-8a3b-19d9b94beba9}, !- Space Name
  Outdoors,                               !- Outside Boundary Condition
  ,                                       !- Outside Boundary Condition Object
  SunExposed,                             !- Sun Exposure
  WindExposed,                            !- Wind Exposure
  ,                                       !- View Factor to Ground
  ,                                       !- Number of Vertices
  2.8421709430404e-014, 33.267756055376, 3.9624, !- X,Y,Z Vertex 1 {m}
  2.8421709430404e-014, 33.267756055376, 0, !- X,Y,Z Vertex 2 {m}
  2.8421709430404e-014, -4.61852778244065e-014, 0, !- X,Y,Z Vertex 3 {m}
  2.8421709430404e-014, -4.61852778244065e-014, 3.9624; !- X,Y,Z Vertex 4 {m}

OS:Surface,
  {421f6f2a-afa6-4ea8-8de3-97fbd54507d7}, !- Handle
  Surface 3,                              !- Name
  Wall,                                   !- Surface Type
  ,                                       !- Construction Name
  {e35bbfc2-c7f9-4be7-8a3b-19d9b94beba9}, !- Space Name
  Surface,                                !- Outside Boundary Condition
  {19981c90-cd60-4fef-8d8a-4ae47977a302}, !- Outside Boundary Condition Object
  NoSun,                                  !- Sun Exposure
  NoWind,                                 !- Wind Exposure
  ,                                       !- View Factor to Ground
  ,                                       !- Number of Vertices
  4.57200000000003, 28.695756055376, 3.9624, !- X,Y,Z Vertex 1 {m}
  4.57200000000003, 28.695756055376, 0,   !- X,Y,Z Vertex 2 {m}
  2.8421709430404e-014, 33.267756055376, 0, !- X,Y,Z Vertex 3 {m}
  2.8421709430404e-014, 33.267756055376, 3.9624; !- X,Y,Z Vertex 4 {m}

OS:Surface,
  {939ebb16-3351-4a16-be97-a1673d6b1f0c}, !- Handle
  Surface 4,                              !- Name
  Wall,                                   !- Surface Type
  ,                                       !- Construction Name
  {e35bbfc2-c7f9-4be7-8a3b-19d9b94beba9}, !- Space Name
  Surface,                                !- Outside Boundary Condition
  {3ae1fde5-ff70-4fc7-8ef0-58be1d5e669c}, !- Outside Boundary Condition Object
  NoSun,                                  !- Sun Exposure
  NoWind,                                 !- Wind Exposure
  ,                                       !- View Factor to Ground
  ,                                       !- Number of Vertices
  4.57200000000003, 4.57199999999995, 3.9624, !- X,Y,Z Vertex 1 {m}
  4.57200000000003, 4.57199999999995, 0,  !- X,Y,Z Vertex 2 {m}
  4.57200000000003, 28.695756055376, 0,   !- X,Y,Z Vertex 3 {m}
  4.57200000000003, 28.695756055376, 3.9624; !- X,Y,Z Vertex 4 {m}

OS:Surface,
  {f93721a5-ef0e-4447-b0d8-a7361750478e}, !- Handle
  Surface 5,                              !- Name
  Wall,                                   !- Surface Type
  ,                                       !- Construction Name
  {e35bbfc2-c7f9-4be7-8a3b-19d9b94beba9}, !- Space Name
  Surface,                                !- Outside Boundary Condition
  {a36de783-47e0-43ca-8262-8235fdffdf0e}, !- Outside Boundary Condition Object
  NoSun,                                  !- Sun Exposure
  NoWind,                                 !- Wind Exposure
  ,                                       !- View Factor to Ground
  ,                                       !- Number of Vertices
  2.8421709430404e-014, -4.61852778244065e-014, 3.9624, !- X,Y,Z Vertex 1 {m}
  2.8421709430404e-014, -4.61852778244065e-014, 0, !- X,Y,Z Vertex 2 {m}
  4.57200000000003, 4.57199999999995, 0,  !- X,Y,Z Vertex 3 {m}
  4.57200000000003, 4.57199999999995, 3.9624; !- X,Y,Z Vertex 4 {m}

OS:Surface,
  {8894fa6f-a487-4b2a-9c9a-189eabab10e5}, !- Handle
  Surface 6,                              !- Name
  RoofCeiling,                            !- Surface Type
  ,                                       !- Construction Name
  {e35bbfc2-c7f9-4be7-8a3b-19d9b94beba9}, !- Space Name
  Surface,                                !- Outside Boundary Condition
  {b0e019b2-04bc-4db3-8483-48dd5a776f09}, !- Outside Boundary Condition Object
  NoSun,                                  !- Sun Exposure
  NoWind,                                 !- Wind Exposure
  ,                                       !- View Factor to Ground
  ,                                       !- Number of Vertices
  4.57200000000003, 4.57199999999995, 3.9624, !- X,Y,Z Vertex 1 {m}
  4.57200000000003, 28.695756055376, 3.9624, !- X,Y,Z Vertex 2 {m}
  2.8421709430404e-014, 33.267756055376, 3.9624, !- X,Y,Z Vertex 3 {m}
  2.8421709430404e-014, -4.61852778244065e-014, 3.9624; !- X,Y,Z Vertex 4 {m}

OS:ThermalZone,
  {4b9285bb-58d5-4ad8-ba91-7f32e9763413}, !- Handle
  Zone West Perimeter Space - Story Ground, !- Name
  1,                                      !- Multiplier
  ,                                       !- Ceiling Height {m}
  ,                                       !- Volume {m3}
  ,                                       !- Floor Area {m2}
  ,                                       !- Zone Inside Convection Algorithm
  ,                                       !- Zone Outside Convection Algorithm
  ,                                       !- Zone Conditioning Equipment List Name
  {b91d11e5-a729-4467-bfeb-75a2953cd536}, !- Zone Air Inlet Port List
  {f35ca5fe-c5ba-4b95-9bf4-d51a0d823a8e}, !- Zone Air Exhaust Port List
  {67313707-6128-4538-bf7a-633e28ac2b5a}, !- Zone Air Node Name
  {0233a738-bc18-403f-bb45-1c47a9991a4c}, !- Zone Return Air Node Name
  ,                                       !- Primary Daylighting Control Name
  ,                                       !- Fraction of Zone Controlled by Primary Daylighting Control
  ,                                       !- Secondary Daylighting Control Name
  ,                                       !- Fraction of Zone Controlled by Secondary Daylighting Control
  ,                                       !- Illuminance Map Name
  ,                                       !- Group Rendering Name
  {2b5b3716-27d4-4d6d-b84f-c919f1563173}, !- Thermostat Name
  No;                                     !- Use Ideal Air Loads

OS:Node,
  {222b39a9-5960-4c90-9d5c-4cda3b4b1231}, !- Handle
  Node 1,                                 !- Name
  {67313707-6128-4538-bf7a-633e28ac2b5a}, !- Inlet Port
  ;                                       !- Outlet Port

OS:Connection,
  {67313707-6128-4538-bf7a-633e28ac2b5a}, !- Handle
  {7ae68afc-567b-4933-a28f-e5579c41f21f}, !- Name
  {4b9285bb-58d5-4ad8-ba91-7f32e9763413}, !- Source Object
  11,                                     !- Outlet Port
  {222b39a9-5960-4c90-9d5c-4cda3b4b1231}, !- Target Object
  2;                                      !- Inlet Port

OS:PortList,
  {b91d11e5-a729-4467-bfeb-75a2953cd536}, !- Handle
  Port List 1,                            !- Name
  {4b9285bb-58d5-4ad8-ba91-7f32e9763413}, !- HVAC Component
  {5944227c-9b41-414d-9b4a-3a78604169cb}; !- Port 1

OS:PortList,
  {f35ca5fe-c5ba-4b95-9bf4-d51a0d823a8e}, !- Handle
  Port List 2,                            !- Name
  {4b9285bb-58d5-4ad8-ba91-7f32e9763413}; !- HVAC Component

OS:Sizing:Zone,
  {276ac518-8512-4e30-857d-d732bf368d67}, !- Handle
  {4b9285bb-58d5-4ad8-ba91-7f32e9763413}, !- Zone or ZoneList Name
  SupplyAirTemperature,                   !- Zone Cooling Design Supply Air Temperature Input Method
  12.7777777777778,                       !- Zone Cooling Design Supply Air Temperature {C}
  11.11,                                  !- Zone Cooling Design Supply Air Temperature Difference {deltaC}
  SupplyAirTemperature,                   !- Zone Heating Design Supply Air Temperature Input Method
  50.0000000000001,                       !- Zone Heating Design Supply Air Temperature {C}
  11.11,                                  !- Zone Heating Design Supply Air Temperature Difference {deltaC}
  0.0085,                                 !- Zone Cooling Design Supply Air Humidity Ratio {kg-H2O/kg-air}
  0.008,                                  !- Zone Heating Design Supply Air Humidity Ratio {kg-H2O/kg-air}
  ,                                       !- Zone Heating Sizing Factor
  ,                                       !- Zone Cooling Sizing Factor
  DesignDay,                              !- Cooling Design Air Flow Method
  ,                                       !- Cooling Design Air Flow Rate {m3/s}
  ,                                       !- Cooling Minimum Air Flow per Zone Floor Area {m3/s-m2}
  ,                                       !- Cooling Minimum Air Flow {m3/s}
  ,                                       !- Cooling Minimum Air Flow Fraction
  DesignDay,                              !- Heating Design Air Flow Method
  ,                                       !- Heating Design Air Flow Rate {m3/s}
  ,                                       !- Heating Maximum Air Flow per Zone Floor Area {m3/s-m2}
  ,                                       !- Heating Maximum Air Flow {m3/s}
  ,                                       !- Heating Maximum Air Flow Fraction
  ,                                       !- Design Zone Air Distribution Effectiveness in Cooling Mode
  ,                                       !- Design Zone Air Distribution Effectiveness in Heating Mode
  No,                                     !- Account for Dedicated Outdoor Air System
  NeutralSupplyAir,                       !- Dedicated Outdoor Air System Control Strategy
  autosize,                               !- Dedicated Outdoor Air Low Setpoint Temperature for Design {C}
  autosize;                               !- Dedicated Outdoor Air High Setpoint Temperature for Design {C}

OS:ZoneHVAC:EquipmentList,
  {30bdf950-1fc4-4700-876d-e0b403dad3f6}, !- Handle
  Zone HVAC Equipment List 1,             !- Name
  {4b9285bb-58d5-4ad8-ba91-7f32e9763413}, !- Thermal Zone
  {af77b7a7-719b-4613-99be-ab087ed65300}, !- Zone Equipment 1
  1,                                      !- Zone Equipment Cooling Sequence 1
  1;                                      !- Zone Equipment Heating or No-Load Sequence 1

OS:Space,
  {320c659f-8f10-4f01-8c5e-649b7b740a1c}, !- Handle
  North Perimeter Space - Story Ground,   !- Name
  ,                                       !- Space Type Name
  ,                                       !- Default Construction Set Name
  ,                                       !- Default Schedule Set Name
  -0,                                     !- Direction of Relative North {deg}
  -24.9508170415319,                      !- X Origin {m}
  16.633878027688,                        !- Y Origin {m}
  0,                                      !- Z Origin {m}
  {e78052d6-42fd-40e9-a57f-76fae636c69a}, !- Building Story Name
  {91e2e01d-e89b-4f15-9296-befbb289652e}; !- Thermal Zone Name

OS:Surface,
  {5ed47123-f337-47d6-8fb0-7f8d88071739}, !- Handle
  Surface 7,                              !- Name
  Floor,                                  !- Surface Type
  ,                                       !- Construction Name
  {320c659f-8f10-4f01-8c5e-649b7b740a1c}, !- Space Name
  Ground,                                 !- Outside Boundary Condition
  ,                                       !- Outside Boundary Condition Object
  NoSun,                                  !- Sun Exposure
  NoWind,                                 !- Wind Exposure
  ,                                       !- View Factor to Ground
  ,                                       !- Number of Vertices
  2.8421709430404e-014, 4.61852778244065e-014, 0, !- X,Y,Z Vertex 1 {m}
  49.9016340830638, 4.61852778244065e-014, 0, !- X,Y,Z Vertex 2 {m}
  45.3296340830638, -4.57199999999995, 0, !- X,Y,Z Vertex 3 {m}
  4.57200000000003, -4.57199999999995, 0; !- X,Y,Z Vertex 4 {m}

OS:Surface,
  {0e4b735f-f186-4310-b8e2-ee1c219f8f30}, !- Handle
  Surface 8,                              !- Name
  Wall,                                   !- Surface Type
  ,                                       !- Construction Name
  {320c659f-8f10-4f01-8c5e-649b7b740a1c}, !- Space Name
  Outdoors,                               !- Outside Boundary Condition
  ,                                       !- Outside Boundary Condition Object
  SunExposed,                             !- Sun Exposure
  WindExposed,                            !- Wind Exposure
  ,                                       !- View Factor to Ground
  ,                                       !- Number of Vertices
  49.9016340830638, 4.61852778244065e-014, 3.9624, !- X,Y,Z Vertex 1 {m}
  49.9016340830638, 4.61852778244065e-014, 0, !- X,Y,Z Vertex 2 {m}
  2.8421709430404e-014, 4.61852778244065e-014, 0, !- X,Y,Z Vertex 3 {m}
  2.8421709430404e-014, 4.61852778244065e-014, 3.9624; !- X,Y,Z Vertex 4 {m}

OS:Surface,
  {54b72b46-6bb2-4e4d-aa71-0439981a16d0}, !- Handle
  Surface 9,                              !- Name
  Wall,                                   !- Surface Type
  ,                                       !- Construction Name
  {320c659f-8f10-4f01-8c5e-649b7b740a1c}, !- Space Name
  Surface,                                !- Outside Boundary Condition
  {1723f65b-9523-49a4-903d-e5eaae9220bd}, !- Outside Boundary Condition Object
  NoSun,                                  !- Sun Exposure
  NoWind,                                 !- Wind Exposure
  ,                                       !- View Factor to Ground
  ,                                       !- Number of Vertices
  45.3296340830638, -4.57199999999995, 3.9624, !- X,Y,Z Vertex 1 {m}
  45.3296340830638, -4.57199999999995, 0, !- X,Y,Z Vertex 2 {m}
  49.9016340830638, 4.61852778244065e-014, 0, !- X,Y,Z Vertex 3 {m}
  49.9016340830638, 4.61852778244065e-014, 3.9624; !- X,Y,Z Vertex 4 {m}

OS:Surface,
  {fdab59e8-5aa4-4ba6-a6be-c81764b09487}, !- Handle
  Surface 10,                             !- Name
  Wall,                                   !- Surface Type
  ,                                       !- Construction Name
  {320c659f-8f10-4f01-8c5e-649b7b740a1c}, !- Space Name
  Surface,                                !- Outside Boundary Condition
  {c0c488bb-0c87-4f72-8a33-fe3973ec4b2f}, !- Outside Boundary Condition Object
  NoSun,                                  !- Sun Exposure
  NoWind,                                 !- Wind Exposure
  ,                                       !- View Factor to Ground
  ,                                       !- Number of Vertices
  4.57200000000003, -4.57199999999995, 3.9624, !- X,Y,Z Vertex 1 {m}
  4.57200000000003, -4.57199999999995, 0, !- X,Y,Z Vertex 2 {m}
  45.3296340830638, -4.57199999999995, 0, !- X,Y,Z Vertex 3 {m}
  45.3296340830638, -4.57199999999995, 3.9624; !- X,Y,Z Vertex 4 {m}

OS:Surface,
  {19981c90-cd60-4fef-8d8a-4ae47977a302}, !- Handle
  Surface 11,                             !- Name
  Wall,                                   !- Surface Type
  ,                                       !- Construction Name
  {320c659f-8f10-4f01-8c5e-649b7b740a1c}, !- Space Name
  Surface,                                !- Outside Boundary Condition
  {421f6f2a-afa6-4ea8-8de3-97fbd54507d7}, !- Outside Boundary Condition Object
  NoSun,                                  !- Sun Exposure
  NoWind,                                 !- Wind Exposure
  ,                                       !- View Factor to Ground
  ,                                       !- Number of Vertices
  2.8421709430404e-014, 4.61852778244065e-014, 3.9624, !- X,Y,Z Vertex 1 {m}
  2.8421709430404e-014, 4.61852778244065e-014, 0, !- X,Y,Z Vertex 2 {m}
  4.57200000000003, -4.57199999999995, 0, !- X,Y,Z Vertex 3 {m}
  4.57200000000003, -4.57199999999995, 3.9624; !- X,Y,Z Vertex 4 {m}

OS:Surface,
  {89638eb1-7224-464a-9358-8cc34b8902d0}, !- Handle
  Surface 12,                             !- Name
  RoofCeiling,                            !- Surface Type
  ,                                       !- Construction Name
  {320c659f-8f10-4f01-8c5e-649b7b740a1c}, !- Space Name
  Surface,                                !- Outside Boundary Condition
  {8919c779-14ca-4e99-a5e9-133cac138e72}, !- Outside Boundary Condition Object
  NoSun,                                  !- Sun Exposure