
OS:Version,
  {65b4834a-6fcc-4cfe-bbf7-7ddb2c9b7a20}, !- Handle
  2.1.0;                                  !- Version Identifier

OS:Facility,
  {8267f9c9-e415-4cb6-a43f-f6d3bad841e4}; !- Handle

OS:SimulationControl,
  {6e8be2df-e200-4bbf-a45e-6d355d1f1283}; !- Handle

OS:Sizing:Parameters,
  {32fd85b2-520d-49c2-87d5-c96309fc276a}, !- Handle
  1.25,                                   !- Heating Sizing Factor
  1.15;                                   !- Cooling Sizing Factor

OS:Timestep,
  {46feecf8-d0d3-4059-a8d9-55c2890f80c7}, !- Handle
  6;                                      !- Number of Timesteps per Hour

OS:ShadowCalculation,
  {3abb292a-dda1-4cb9-a927-00dba8c012f6}, !- Handle
  20,                                     !- Calculation Frequency
  15000;                                  !- Maximum Figures in Shadow Overlap Calculations

OS:HeatBalanceAlgorithm,
  {919faf59-86dc-4b16-b854-5ae37e6e1f54}, !- Handle
  ConductionTransferFunction,             !- Algorithm
  200;                                    !- Surface Temperature Upper Limit {C}

OS:RunPeriod,
  {ca3fc653-8a3a-4710-9560-590d995373ed}, !- Handle
  Run Period 1,                           !- Name
  1,                                      !- Begin Month
  1,                                      !- Begin Day of Month
  12,                                     !- End Month
  31,                                     !- End Day of Month
  ,                                       !- Use Weather File Holidays and Special Days
  ,                                       !- Use Weather File Daylight Saving Period
  ,                                       !- Apply Weekend Holiday Rule
  ,                                       !- Use Weather File Rain Indicators
  ,                                       !- Use Weather File Snow Indicators
  ;                                       !- Number of Times Runperiod to be Repeated

OS:LifeCycleCost:Parameters,
  {a1b3c6d2-d463-49f2-a35e-0719981d770b}, !- Handle
  ,                                       !- Analysis Type
  ,                                       !- Discounting Convention
  ,                                       !- Inflation Approach
  ,                                       !- Real Discount Rate
  ,                                       !- Nominal Discount Rate
  ,                                       !- Inflation
  ,                                       !- Base Date Month
  ,                                       !- Base Date Year
  ,                                       !- Service Date Month
  ,                                       !- Service Date Year
  ;                                       !- Length of Study Period in Years

OS:WeatherFile,
  {f835b09f-2a36-4624-8eca-222e652b4bb5}, !- Handle
  Climate Zone 3,                         !- City
  CA,                                     !- State Province Region
  USA,                                    !- Country
  CTZRV2,                                 !- Data Source
  724930,                                 !- WMO Number
  37.7,                                   !- Latitude {deg}
  -122.2,                                 !- Longitude {deg}
  -8,                                     !- Time Zone {hr}
  2,                                      !- Elevation {m}
  file:///D:/Sites/OpenStudio-measures/NREL_integration_testing/weather/CZ03RV2.epw, !- Url
  ;                                       !- Checksum

OS:Site,
  {7e6fafc3-8d7c-4788-831b-77f5d0fd24c2}, !- Handle
  Climate Zone 3_CA_USA,                  !- Name
  37.7,                                   !- Latitude {deg}
  -122.2,                                 !- Longitude {deg}
  -8,                                     !- Time Zone {hr}
  2,                                      !- Elevation {m}
  ;                                       !- Terrain

OS:ClimateZones,
  {8eaaf542-2e75-4b63-8c8f-bbfa05a05c8e}, !- Handle
  ,                                       !- Active Institution
  ,                                       !- Active Year
  ,                                       !- Climate Zone Institution Name 1
  ,                                       !- Climate Zone Document Name 1
  ,                                       !- Climate Zone Document Year 1
  ,                                       !- Climate Zone Value 1
  CEC,                                    !- Climate Zone Institution Name 2
  California Climate Zone Descriptions,   !- Climate Zone Document Name 2
  1995,                                   !- Climate Zone Document Year 2
  CEC3;                                   !- Climate Zone Value 2

OS:Site:WaterMainsTemperature,
  {fdb8fc27-6eae-48a1-9b85-1bf67019b0d3}, !- Handle
  Correlation,                            !- Calculation Method
  ,                                       !- Temperature Schedule Name
  14.1416666666667,                       !- Annual Average Outdoor Air Temperature {C}
  7.8;                                    !- Maximum Difference In Monthly Average Outdoor Air Temperatures {deltaC}

OS:SizingPeriod:DesignDay,
  {ed46e802-53b0-4c7d-bd1d-9084bd9e8ed3}, !- Handle
  Climate Zone 3 Ann Clg .4% Condns WB=>MDB, !- Name
  25.5,                                   !- Maximum Dry-Bulb Temperature {C}
  7.4,                                    !- Daily Dry-Bulb Temperature Range {deltaC}
  19.8,                                   !- Humidity Indicating Conditions at Maximum Dry-Bulb
  101301,                                 !- Barometric Pressure {Pa}
  4.9,                                    !- Wind Speed {m/s}
  290,                                    !- Wind Direction {deg}
  0,                                      !- Sky Clearness
  0,                                      !- Rain Indicator
  0,                                      !- Snow Indicator
  21,                                     !- Day of Month
  8,                                      !- Month
  SummerDesignDay,                        !- Day Type
  0,                                      !- Daylight Saving Time Indicator
  Wetbulb,                                !- Humidity Indicating Type
  ,                                       !- Humidity Indicating Day Schedule Name
  DefaultMultipliers,                     !- Dry-Bulb Temperature Range Modifier Type
  ,                                       !- Dry-Bulb Temperature Range Modifier Schedule Name
  ASHRAETau,                              !- Solar Model Indicator
  ,                                       !- Beam Solar Day Schedule Name
  ,                                       !- Diffuse Solar Day Schedule Name
  0.367,                                  !- ASHRAE Taub {dimensionless}
  2.428;                                  !- ASHRAE Taud {dimensionless}

OS:SizingPeriod:DesignDay,
  {4bf6dd55-33c5-436c-9f04-617f0f5078b3}, !- Handle
  Climate Zone 3 Ann Clg .4% Condns DB=>MWB, !- Name
  27.7,                                   !- Maximum Dry-Bulb Temperature {C}
  7.4,                                    !- Daily Dry-Bulb Temperature Range {deltaC}
  18.3,                                   !- Humidity Indicating Conditions at Maximum Dry-Bulb
  101301,                                 !- Barometric Pressure {Pa}
  4.9,                                    !- Wind Speed {m/s}
  290,                                    !- Wind Direction {deg}
  0,                                      !- Sky Clearness
  0,                                      !- Rain Indicator
  0,                                      !- Snow Indicator
  21,                                     !- Day of Month
  8,                                      !- Month
  SummerDesignDay,                        !- Day Type
  0,                                      !- Daylight Saving Time Indicator
  Wetbulb,                                !- Humidity Indicating Type
  ,                                       !- Humidity Indicating Day Schedule Name
  DefaultMultipliers,                     !- Dry-Bulb Temperature Range Modifier Type
  ,                                       !- Dry-Bulb Temperature Range Modifier Schedule Name
  ASHRAETau,                              !- Solar Model Indicator
  ,                                       !- Beam Solar Day Schedule Name
  ,                                       !- Diffuse Solar Day Schedule Name
  0.367,                                  !- ASHRAE Taub {dimensionless}
  2.428;                                  !- ASHRAE Taud {dimensionless}

OS:SizingPeriod:DesignDay,
  {b953932a-ff0a-431e-b3b7-aacae8a75ec4}, !- Handle
  Climate Zone 3 Ann Htg 99.6% Condns DB, !- Name
  2.9,                                    !- Maximum Dry-Bulb Temperature {C}
  0,                                      !- Daily Dry-Bulb Temperature Range {deltaC}
  2.9,                                    !- Humidity Indicating Conditions at Maximum Dry-Bulb
  101301,                                 !- Barometric Pressure {Pa}
  2.2,                                    !- Wind Speed {m/s}
  50,                                     !- Wind Direction {deg}
  0,                                      !- Sky Clearness
  0,                                      !- Rain Indicator
  0,                                      !- Snow Indicator
  21,                                     !- Day of Month
  1,                                      !- Month
  WinterDesignDay,                        !- Day Type
  0,                                      !- Daylight Saving Time Indicator
  Wetbulb,                                !- Humidity Indicating Type
  ,                                       !- Humidity Indicating Day Schedule Name
  DefaultMultipliers,                     !- Dry-Bulb Temperature Range Modifier Type
  ,                                       !- Dry-Bulb Temperature Range Modifier Schedule Name
  ASHRAEClearSky;                         !- Solar Model Indicator

OS:SpaceType,
  {6c565ea2-053c-4d3b-afb7-b9c95d66a72e}, !- Handle
  Retail Back_Space - CEC T24 2001,       !- Name
  ,                                       !- Default Construction Set Name
  {194ca730-3111-49be-a835-c222b9b209e6}, !- Default Schedule Set Name
  {87e475cd-1b05-4d93-aa4c-863bf1c0b11e}, !- Group Rendering Name
  {f0c7b7f7-a746-4ceb-a862-9704885a8a5c}, !- Design Specification Outdoor Air Object Name
  Retail,                                 !- Standards Building Type
  Back_Space;                             !- Standards Space Type

OS:Rendering:Color,
  {87e475cd-1b05-4d93-aa4c-863bf1c0b11e}, !- Handle
  Rendering Color 1,                      !- Name
  120,                                    !- Rendering Red Value
  149,                                    !- Rendering Green Value
  230;                                    !- Rendering Blue Value

OS:SpaceType,
  {649a1584-f9a6-4567-9bbf-4a977122a626}, !- Handle
  Retail Entry - CEC T24 2001,            !- Name
  ,                                       !- Default Construction Set Name
  {fbabf680-dbbb-42c6-a1da-3ba8519c9904}, !- Default Schedule Set Name
  {137613dd-4e93-465d-80e7-5bdbe60d6fd1}, !- Group Rendering Name
  {f0819e2e-aacb-40d2-a121-5db21b218cbb}, !- Design Specification Outdoor Air Object Name
  Retail,                                 !- Standards Building Type
  Entry;                                  !- Standards Space Type

OS:Rendering:Color,
  {137613dd-4e93-465d-80e7-5bdbe60d6fd1}, !- Handle
  Rendering Color 2,                      !- Name
  169,                                    !- Rendering Red Value
  31,                                     !- Rendering Green Value
  31;                                     !- Rendering Blue Value

OS:SpaceType,
  {cf984357-8dcf-419f-806e-11310a12e7ec}, !- Handle
  Retail Point_of_Sale - CEC T24 2001,    !- Name
  ,                                       !- Default Construction Set Name
  {074f1e58-85b4-4b3b-abb3-8cd0145b5caf}, !- Default Schedule Set Name
  {11eb8748-b1e6-4f49-bb9e-8732d3c0ab19}, !- Group Rendering Name
  {68a73471-be5a-4bc8-b93c-1f4f01e3ddc6}, !- Design Specification Outdoor Air Object Name
  Retail,                                 !- Standards Building Type
  Point_of_Sale;                          !- Standards Space Type

OS:Rendering:Color,
  {11eb8748-b1e6-4f49-bb9e-8732d3c0ab19}, !- Handle
  Rendering Color 3,                      !- Name
  171,                                    !- Rendering Red Value
  222,                                    !- Rendering Green Value
  78;                                     !- Rendering Blue Value

OS:SpaceType,
  {55458575-f895-4799-9ef3-eb31fa7d97bd}, !- Handle
  Retail Retail - CEC T24 2001,           !- Name
  ,                                       !- Default Construction Set Name
  {a12c10ff-c602-4f4d-89d0-c0989dc56b7c}, !- Default Schedule Set Name
  {81cd38d6-185d-4e1a-a28e-207d77b21213}, !- Group Rendering Name
  {ee74b8ad-31dd-4d41-bc4d-edfa89ba6832}, !- Design Specification Outdoor Air Object Name
  Retail,                                 !- Standards Building Type
  Retail;                                 !- Standards Space Type

OS:Rendering:Color,
  {81cd38d6-185d-4e1a-a28e-207d77b21213}, !- Handle
  Rendering Color 4,                      !- Name
  171,                                    !- Rendering Red Value
  222,                                    !- Rendering Green Value
  78;                                     !- Rendering Blue Value

OS:Building,
  {76c5b956-c5fa-43ce-a679-379212f7ee98}, !- Handle
  CEC T24 2001|RetailStandalone,          !- Name
  ,                                       !- Building Sector Type
  ,                                       !- North Axis {deg}
  ,                                       !- Nominal Floor to Floor Height {m}
  ,                                       !- Space Type Name
  {f61e9d1e-f6a9-4ac2-82b1-cda68122200c}, !- Default Construction Set Name
  ,                                       !- Default Schedule Set Name
  ,                                       !- Standards Number of Stories
  ,                                       !- Standards Number of Above Ground Stories
  Retail;                                 !- Standards Building Type

OS:BuildingStory,
  {622db0b6-83de-45d6-bcd4-bdeef7df2d66}, !- Handle
  Story Ground,                           !- Name
  0,                                      !- Nominal Z Coordinate {m}
  6.096,                                  !- Nominal Floor to Floor Height {m}
  ,                                       !- Default Construction Set Name
  ,                                       !- Default Schedule Set Name
  ;                                       !- Group Rendering Name

OS:Space,
  {66826dbd-b083-4ce9-a796-fea3ece6e143}, !- Handle
  Retail Retail A end_a - Story Ground,   !- Name
  {55458575-f895-4799-9ef3-eb31fa7d97bd}, !- Space Type Name
  ,                                       !- Default Construction Set Name
  ,                                       !- Default Schedule Set Name
  -0,                                     !- Direction of Relative North {deg}
  -45.4393730029982,                      !- X Origin {m}
  -35.4995101585923,                      !- Y Origin {m}
  0,                                      !- Z Origin {m}
  {622db0b6-83de-45d6-bcd4-bdeef7df2d66}, !- Building Story Name
  {48637c92-c13c-40fe-833d-1215419eafc5}; !- Thermal Zone Name

OS:Surface,
  {80550ae2-4441-433f-af50-773870dadc80}, !- Handle
  Surface 1,                              !- Name
  Floor,                                  !- Surface Type
  ,                                       !- Construction Name
  {66826dbd-b083-4ce9-a796-fea3ece6e143}, !- Space Name
  Ground,                                 !- Outside Boundary Condition
  ,                                       !- Outside Boundary Condition Object
  NoSun,                                  !- Sun Exposure
  NoWind,                                 !- Wind Exposure
  ,                                       !- View Factor to Ground
  ,                                       !- Number of Vertices
  -2.1316282072803e-014, 2.8421709430404e-014, 0, !- X,Y,Z Vertex 1 {m}
  -2.1316282072803e-014, 4.57200000000003, 0, !- X,Y,Z Vertex 2 {m}
  4.57199999999998, 4.57200000000003, 0,  !- X,Y,Z Vertex 3 {m}
  4.57199999999998, 2.8421709430404e-014, 0; !- X,Y,Z Vertex 4 {m}

OS:Surface,
  {8c7730f9-81b8-4113-9ca1-0450fb2c59ee}, !- Handle
  Surface 2,                              !- Name
  Wall,                                   !- Surface Type
  ,                                       !- Construction Name
  {66826dbd-b083-4ce9-a796-fea3ece6e143}, !- Space Name
  Outdoors,                               !- Outside Boundary Condition
  ,                                       !- Outside Boundary Condition Object
  SunExposed,                             !- Sun Exposure
  WindExposed,                            !- Wind Exposure
  ,                                       !- View Factor to Ground
  ,                                       !- Number of Vertices
  -2.1316282072803e-014, 4.57200000000003, 6.096, !- X,Y,Z Vertex 1 {m}
  -2.1316282072803e-014, 4.57200000000003, 0, !- X,Y,Z Vertex 2 {m}
  -2.1316282072803e-014, 2.8421709430404e-014, 0, !- X,Y,Z Vertex 3 {m}
  -2.1316282072803e-014, 2.8421709430404e-014, 6.096; !- X,Y,Z Vertex 4 {m}

OS:Surface,
  {2b8bfb68-8c35-447e-882f-5b947f615e46}, !- Handle
  Surface 3,                              !- Name
  Wall,                                   !- Surface Type
  ,                                       !- Construction Name
  {66826dbd-b083-4ce9-a796-fea3ece6e143}, !- Space Name
  Surface,                                !- Outside Boundary Condition
  {d79096fb-0f14-4a62-bd48-d8cee0d940a5}, !- Outside Boundary Condition Object
  NoSun,                                  !- Sun Exposure
  NoWind,                                 !- Wind Exposure
  ,                                       !- View Factor to Ground
  ,                                       !- Number of Vertices
  4.57199999999998, 4.57200000000003, 6.096, !- X,Y,Z Vertex 1 {m}
  4.57199999999998, 4.57200000000003, 0,  !- X,Y,Z Vertex 2 {m}
  -2.1316282072803e-014, 4.57200000000003, 0, !- X,Y,Z Vertex 3 {m}
  -2.1316282072803e-014, 4.57200000000003, 6.096; !- X,Y,Z Vertex 4 {m}

OS:Surface,
  {db2cc44c-41cf-4481-ae2f-a35010a0bef1}, !- Handle
  Surface 4,                              !- Name
  Wall,                                   !- Surface Type
  ,                                       !- Construction Name
  {66826dbd-b083-4ce9-a796-fea3ece6e143}, !- Space Name
  Surface,                                !- Outside Boundary Condition
  {c50b29de-1a6d-42c1-9d37-c7019719d5d4}, !- Outside Boundary Condition Object
  NoSun,                                  !- Sun Exposure
  NoWind,                                 !- Wind Exposure
  ,                                       !- View Factor to Ground
  ,                                       !- Number of Vertices
  4.57199999999998, 2.8421709430404e-014, 6.096, !- X,Y,Z Vertex 1 {m}
  4.57199999999998, 2.8421709430404e-014, 0, !- X,Y,Z Vertex 2 {m}
  4.57199999999998, 4.57200000000003, 0,  !- X,Y,Z Vertex 3 {m}
  4.57199999999998, 4.57200000000003, 6.096; !- X,Y,Z Vertex 4 {m}

OS:Surface,
  {2ac95122-7968-414b-a603-1983a98e1cbb}, !- Handle
  Surface 5,                              !- Name
  Wall,                                   !- Surface Type
  ,                                       !- Construction Name
  {66826dbd-b083-4ce9-a796-fea3ece6e143}, !- Space Name
  Outdoors,                               !- Outside Boundary Condition
  ,                                       !- Outside Boundary Condition Object
  SunExposed,                             !- Sun Exposure
  WindExposed,                            !- Wind Exposure
  ,                                       !- View Factor to Ground
  ,                                       !- Number of Vertices
  -2.1316282072803e-014, 2.8421709430404e-014, 6.096, !- X,Y,Z Vertex 1 {m}
  -2.1316282072803e-014, 2.8421709430404e-014, 0, !- X,Y,Z Vertex 2 {m}
  4.57199999999998, 2.8421709430404e-014, 0, !- X,Y,Z Vertex 3 {m}
  4.57199999999998, 2.8421709430404e-014, 6.096; !- X,Y,Z Vertex 4 {m}

OS:Surface,
  {beda7c85-01a7-4aa8-815e-58f7fca1a70f}, !- Handle
  Surface 6,                              !- Name
  RoofCeiling,                            !- Surface Type
  ,                                       !- Construction Name
  {66826dbd-b083-4ce9-a796-fea3ece6e143}, !- Space Name
  Outdoors,                               !- Outside Boundary Condition
  ,                                       !- Outside Boundary Condition Object
  SunExposed,                             !- Sun Exposure
  WindExposed,                            !- Wind Exposure
  ,                                       !- View Factor to Ground
  ,                                       !- Number of Vertices
  4.57199999999998, 2.8421709430404e-014, 6.096, !- X,Y,Z Vertex 1 {m}
  4.57199999999998, 4.57200000000003, 6.096, !- X,Y,Z Vertex 2 {m}
  -2.1316282072803e-014, 4.57200000000003, 6.096, !- X,Y,Z Vertex 3 {m}
  -2.1316282072803e-014, 2.8421709430404e-014, 6.096; !- X,Y,Z Vertex 4 {m}

OS:ThermalZone,
  {48637c92-c13c-40fe-833d-1215419eafc5}, !- Handle
  Zone Retail Retail A end_a - Story Ground, !- Name
  1,                                      !- Multiplier
  ,                                       !- Ceiling Height {m}
  ,                                       !- Volume {m3}
  ,                                       !- Floor Area {m2}
  ,                                       !- Zone Inside Convection Algorithm
  ,                                       !- Zone Outside Convection Algorithm
  ,                                       !- Zone Conditioning Equipment List Name
  {05239d00-fe71-4ec3-9265-d0ba52a31aea}, !- Zone Air Inlet Port List
  {9de05a69-c75e-45aa-a23c-3ccd1e64be00}, !- Zone Air Exhaust Port List
  {be2bc8d9-303f-4074-bec6-6f4dc59291e0}, !- Zone Air Node Name
  {ca940480-8188-4197-8d0c-7b8d4fb05984}, !- Zone Return Air Node Name
  ,                                       !- Primary Daylighting Control Name
  ,                                       !- Fraction of Zone Controlled by Primary Daylighting Control
  ,                                       !- Secondary Daylighting Control Name
  ,                                       !- Fraction of Zone Controlled by Secondary Daylighting Control
  ,                                       !- Illuminance Map Name
  ,                                       !- Group Rendering Name
  {32c48bb5-5fdc-48bd-b1a9-cc1ca0db496b}, !- Thermostat Name
  No;                                     !- Use Ideal Air Loads

OS:Node,
  {c81dbb41-21b8-4725-ab8f-2b2f8c4bc7af}, !- Handle
  Node 1,                                 !- Name
  {be2bc8d9-303f-4074-bec6-6f4dc59291e0}, !- Inlet Port
  ;                                       !- Outlet Port

OS:Connection,
  {be2bc8d9-303f-4074-bec6-6f4dc59291e0}, !- Handle
  {df18a7f3-2633-403f-b7e8-89d7e5a43e61}, !- Name
  {48637c92-c13c-40fe-833d-1215419eafc5}, !- Source Object
  11,                                     !- Outlet Port
  {c81dbb41-21b8-4725-ab8f-2b2f8c4bc7af}, !- Target Object
  2;                                      !- Inlet Port

OS:PortList,
  {05239d00-fe71-4ec3-9265-d0ba52a31aea}, !- Handle
  Port List 1,                            !- Name
  {48637c92-c13c-40fe-833d-1215419eafc5}, !- HVAC Component
  {e6469bed-8cf2-494a-a9b8-b1e40f5faed3}; !- Port 1

OS:PortList,
  {9de05a69-c75e-45aa-a23c-3ccd1e64be00}, !- Handle
  Port List 2,                            !- Name
  {48637c92-c13c-40fe-833d-1215419eafc5}; !- HVAC Component

OS:Sizing:Zone,
  {dd82f1d3-de4c-4277-80ab-e740527c90df}, !- Handle
  {48637c92-c13c-40fe-833d-1215419eafc5}, !- Zone or ZoneList Name
  SupplyAirTemperature,                   !- Zone Cooling Design Supply Air Temperature Input Method
  12.8,                                   !- Zone Cooling Design Supply Air Temperature {C}
  11.11,                                  !- Zone Cooling Design Supply Air Temperature Difference {deltaC}
  SupplyAirTemperature,                   !- Zone Heating Design Supply Air Temperature Input Method
  40,                                     !- Zone Heating Design Supply Air Temperature {C}
  11.11,                                  !- Zone Heating Design Supply Air Temperature Difference {deltaC}
  0.0085,                                 !- Zone Cooling Design Supply Air Humidity Ratio {kg-H2O/kg-air}
  0.008,                                  !- Zone Heating Design Supply Air Humidity Ratio {kg-H2O/kg-air}
  ,                                       !- Zone Heating Sizing Factor
  ,                                       !- Zone Cooling Sizing Factor
  DesignDay,                              !- Cooling Design Air Flow Method
  ,                                       !- Cooling Design Air Flow Rate {m3/s}
  ,                                       !- Cooling Minimum Air Flow per Zone Floor Area {m3/s-m2}
  ,                                       !- Cooling Minimum Air Flow {m3/s}
  ,                                       !- Cooling Minimum Air Flow Fraction
  DesignDay,                              !- Heating Design Air Flow Method
  ,                                       !- Heating Design Air Flow Rate {m3/s}
  ,                                       !- Heating Maximum Air Flow per Zone Floor Area {m3/s-m2}
  ,                                       !- Heating Maximum Air Flow {m3/s}
  ,                                       !- Heating Maximum Air Flow Fraction
  ,                                       !- Design Zone Air Distribution Effectiveness in Cooling Mode
  ,                                       !- Design Zone Air Distribution Effectiveness in Heating Mode
  No,                                     !- Account for Dedicated Outdoor Air System
  NeutralSupplyAir,                       !- Dedicated Outdoor Air System Control Strategy
  autosize,                               !- Dedicated Outdoor Air Low Setpoint Temperature for Design {C}
  autosize;                               !- Dedicated Outdoor Air High Setpoint Temperature for Design {C}

OS:ZoneHVAC:EquipmentList,
  {fc9fe6f4-56e5-4d14-83fc-b54762c4c460}, !- Handle
  Zone HVAC Equipment List 1,             !- Name
  {48637c92-c13c-40fe-833d-1215419eafc5}, !- Thermal Zone
  {f4bbf241-839e-4618-8fd5-30d2ad7467e3}, !- Zone Equipment 1
  1,                                      !- Zone Equipment Cooling Sequence 1
  1;                                      !- Zone Equipment Heating or No-Load Sequence 1

OS:Space,
  {78a2c9f7-51c6-4bce-8ece-db5a56d8ff1a}, !- Handle
  Retail Retail B end_a - Story Ground,   !- Name
  {55458575-f895-4799-9ef3-eb31fa7d97bd}, !- Space Type Name
  ,                                       !- Default Construction Set Name
  ,                                       !- Default Schedule Set Name
  -0,                                     !- Direction of Relative North {deg}
  -45.4393730029982,                      !- X Origin {m}
  -30.9275101585923,                      !- Y Origin {m}
  0,                                      !- Z Origin {m}
  {622db0b6-83de-45d6-bcd4-bdeef7df2d66}, !- Building Story Name
  {9e05302a-8d48-45ce-a07f-fc922392dec0}; !- Thermal Zone Name

OS:Surface,
  {4a926f1a-f192-4cc2-b25e-0664f6f7b73a}, !- Handle
  Surface 7,                              !- Name
  Floor,                                  !- Surface Type
  ,                                       !- Construction Name
  {78a2c9f7-51c6-4bce-8ece-db5a56d8ff1a}, !- Space Name
  Ground,                                 !- Outside Boundary Condition
  ,                                       !- Outside Boundary Condition Object
  NoSun,                                  !- Sun Exposure
  NoWind,                                 !- Wind Exposure
  ,                                       !- View Factor to Ground
  ,                                       !- Number of Vertices
  -2.1316282072803e-014, 3.19744231092045e-014, 0, !- X,Y,Z Vertex 1 {m}
  -2.1316282072803e-014, 61.8550203171846, 0, !- X,Y,Z Vertex 2 {m}
  4.57199999999998, 61.8550203171846, 0,  !- X,Y,Z Vertex 3 {m}
  4.57199999999998, 3.19744231092045e-014, 0; !- X,Y,Z Vertex 4 {m}

OS:Surface,
  {398f5e55-3fe8-4a08-988b-eac4c6b3ee22}, !- Handle
  Surface 8,                              !- Name
  Wall,                                   !- Surface Type
  ,                                       !- Construction Name
  {78a2c9f7-51c6-4bce-8ece-db5a56d8ff1a}, !- Space Name
  Outdoors,                               !- Outside Boundary Condition
  ,                                       !- Outside Boundary Condition Object
  SunExposed,                             !- Sun Exposure
  WindExposed,                            !- Wind Exposure
  ,                                       !- View Factor to Ground
  ,                                       !- Number of Vertices
  -2.1316282072803e-014, 61.8550203171846, 6.096, !- X,Y,Z Vertex 1 {m}
  -2.1316282072803e-014, 61.8550203171846, 0, !- X,Y,Z Vertex 2 {m}
  -2.1316282072803e-014, 3.19744231092045e-014, 0, !- X,Y,Z Vertex 3 {m}
  -2.1316282072803e-014, 3.19744231092045e-014, 6.096; !- X,Y,Z Vertex 4 {m}

OS:Surface,
  {5e1c327e-6b0f-46dc-9cf3-c4debd2e5692}, !- Handle
  Surface 9,                              !- Name
  Wall,                                   !- Surface Type
  ,                                       !- Construction Name
  {78a2c9f7-51c6-4bce-8ece-db5a56d8ff1a}, !- Space Name
  Surface,                                !- Outside Boundary Condition
  {3f1d31b7-dc04-4ae3-915e-adc7373f6c24}, !- Outside Boundary Condition Object
  NoSun,                                  !- Sun Exposure
  NoWind,                                 !- Wind Exposure
  ,                                       !- View Factor to Ground
  ,                                       !- Number of Vertices
  4.57199999999998, 61.8550203171846, 6.096, !- X,Y,Z Vertex 1 {m}