
OS:Version,
  {bbe8835e-5f48-43c2-b476-8168ee7e18e7}, !- Handle
  2.1.0;                                  !- Version Identifier

OS:Facility,
  {0aed7b78-d57a-4ecc-ba9a-b60a4e102a2a}; !- Handle

OS:SimulationControl,
  {aba1714e-7f05-415c-b0aa-9fd5559da4ec}; !- Handle

OS:Sizing:Parameters,
  {8cd025dd-0f0f-4ba9-afe2-8a624b0d7e9c}, !- Handle
  1.25,                                   !- Heating Sizing Factor
  1.15;                                   !- Cooling Sizing Factor

OS:Timestep,
  {783f52ed-daad-4701-985f-d37e62f608f8}, !- Handle
  6;                                      !- Number of Timesteps per Hour

OS:ShadowCalculation,
  {06ea80c9-455f-41d3-862c-fabec753e56f}, !- Handle
  20,                                     !- Calculation Frequency
  15000;                                  !- Maximum Figures in Shadow Overlap Calculations

OS:HeatBalanceAlgorithm,
  {8373bccd-5495-47fb-8d8a-f99e00a2bd78}, !- Handle
  ConductionTransferFunction,             !- Algorithm
  200;                                    !- Surface Temperature Upper Limit {C}

OS:RunPeriod,
  {b2269990-ba73-433d-93bf-d991f43a39e6}, !- Handle
  Run Period 1,                           !- Name
  1,                                      !- Begin Month
  1,                                      !- Begin Day of Month
  12,                                     !- End Month
  31,                                     !- End Day of Month
  ,                                       !- Use Weather File Holidays and Special Days
  ,                                       !- Use Weather File Daylight Saving Period
  ,                                       !- Apply Weekend Holiday Rule
  ,                                       !- Use Weather File Rain Indicators
  ,                                       !- Use Weather File Snow Indicators
  ;                                       !- Number of Times Runperiod to be Repeated

OS:LifeCycleCost:Parameters,
  {21ca588c-f902-42aa-bcfe-56acad623f7d}, !- Handle
  ,                                       !- Analysis Type
  ,                                       !- Discounting Convention
  ,                                       !- Inflation Approach
  ,                                       !- Real Discount Rate
  ,                                       !- Nominal Discount Rate
  ,                                       !- Inflation
  ,                                       !- Base Date Month
  ,                                       !- Base Date Year
  ,                                       !- Service Date Month
  ,                                       !- Service Date Year
  ;                                       !- Length of Study Period in Years

OS:WeatherFile,
  {dbf9d1d2-7a9d-4afc-b0f1-1888918cc9d3}, !- Handle
  Climate Zone 3,                         !- City
  CA,                                     !- State Province Region
  USA,                                    !- Country
  CTZRV2,                                 !- Data Source
  724930,                                 !- WMO Number
  37.7,                                   !- Latitude {deg}
  -122.2,                                 !- Longitude {deg}
  -8,                                     !- Time Zone {hr}
  2,                                      !- Elevation {m}
  file:///D:/Sites/OpenStudio-measures/NREL_integration_testing/weather/CZ03RV2.epw, !- Url
  ;                                       !- Checksum

OS:Site,
  {c65fa2af-17de-4ae8-9b6e-da5b249d4104}, !- Handle
  Climate Zone 3_CA_USA,                  !- Name
  37.7,                                   !- Latitude {deg}
  -122.2,                                 !- Longitude {deg}
  -8,                                     !- Time Zone {hr}
  2,                                      !- Elevation {m}
  ;                                       !- Terrain

OS:ClimateZones,
  {9e7dd6d7-817f-447d-90ef-059ea2ed94a8}, !- Handle
  ,                                       !- Active Institution
  ,                                       !- Active Year
  ,                                       !- Climate Zone Institution Name 1
  ,                                       !- Climate Zone Document Name 1
  ,                                       !- Climate Zone Document Year 1
  ,                                       !- Climate Zone Value 1
  CEC,                                    !- Climate Zone Institution Name 2
  California Climate Zone Descriptions,   !- Climate Zone Document Name 2
  1995,                                   !- Climate Zone Document Year 2
  CEC3;                                   !- Climate Zone Value 2

OS:Site:WaterMainsTemperature,
  {6ebe5bae-b915-4f13-aa2c-c8801147e9db}, !- Handle
  Correlation,                            !- Calculation Method
  ,                                       !- Temperature Schedule Name
  14.1416666666667,                       !- Annual Average Outdoor Air Temperature {C}
  7.8;                                    !- Maximum Difference In Monthly Average Outdoor Air Temperatures {deltaC}

OS:SizingPeriod:DesignDay,
  {5c8d0f87-6e0b-46b7-a01e-e6fa2af41c3b}, !- Handle
  Climate Zone 3 Ann Clg .4% Condns DB=>MWB, !- Name
  27.7,                                   !- Maximum Dry-Bulb Temperature {C}
  7.4,                                    !- Daily Dry-Bulb Temperature Range {deltaC}
  18.3,                                   !- Humidity Indicating Conditions at Maximum Dry-Bulb
  101301,                                 !- Barometric Pressure {Pa}
  4.9,                                    !- Wind Speed {m/s}
  290,                                    !- Wind Direction {deg}
  0,                                      !- Sky Clearness
  0,                                      !- Rain Indicator
  0,                                      !- Snow Indicator
  21,                                     !- Day of Month
  8,                                      !- Month
  SummerDesignDay,                        !- Day Type
  0,                                      !- Daylight Saving Time Indicator
  Wetbulb,                                !- Humidity Indicating Type
  ,                                       !- Humidity Indicating Day Schedule Name
  DefaultMultipliers,                     !- Dry-Bulb Temperature Range Modifier Type
  ,                                       !- Dry-Bulb Temperature Range Modifier Schedule Name
  ASHRAETau,                              !- Solar Model Indicator
  ,                                       !- Beam Solar Day Schedule Name
  ,                                       !- Diffuse Solar Day Schedule Name
  0.367,                                  !- ASHRAE Taub {dimensionless}
  2.428;                                  !- ASHRAE Taud {dimensionless}

OS:SizingPeriod:DesignDay,
  {4b0a3b3c-f619-4d1a-88de-62b370e8b34a}, !- Handle
  Climate Zone 3 Ann Htg 99.6% Condns DB, !- Name
  2.9,                                    !- Maximum Dry-Bulb Temperature {C}
  0,                                      !- Daily Dry-Bulb Temperature Range {deltaC}
  2.9,                                    !- Humidity Indicating Conditions at Maximum Dry-Bulb
  101301,                                 !- Barometric Pressure {Pa}
  2.2,                                    !- Wind Speed {m/s}
  50,                                     !- Wind Direction {deg}
  0,                                      !- Sky Clearness
  0,                                      !- Rain Indicator
  0,                                      !- Snow Indicator
  21,                                     !- Day of Month
  1,                                      !- Month
  WinterDesignDay,                        !- Day Type
  0,                                      !- Daylight Saving Time Indicator
  Wetbulb,                                !- Humidity Indicating Type
  ,                                       !- Humidity Indicating Day Schedule Name
  DefaultMultipliers,                     !- Dry-Bulb Temperature Range Modifier Type
  ,                                       !- Dry-Bulb Temperature Range Modifier Schedule Name
  ASHRAEClearSky;                         !- Solar Model Indicator

OS:SizingPeriod:DesignDay,
  {a760d12c-d852-4196-a472-b9a1cac781c8}, !- Handle
  Climate Zone 3 Ann Clg .4% Condns WB=>MDB, !- Name
  25.5,                                   !- Maximum Dry-Bulb Temperature {C}
  7.4,                                    !- Daily Dry-Bulb Temperature Range {deltaC}
  19.8,                                   !- Humidity Indicating Conditions at Maximum Dry-Bulb
  101301,                                 !- Barometric Pressure {Pa}
  4.9,                                    !- Wind Speed {m/s}
  290,                                    !- Wind Direction {deg}
  0,                                      !- Sky Clearness
  0,                                      !- Rain Indicator
  0,                                      !- Snow Indicator
  21,                                     !- Day of Month
  8,                                      !- Month
  SummerDesignDay,                        !- Day Type
  0,                                      !- Daylight Saving Time Indicator
  Wetbulb,                                !- Humidity Indicating Type
  ,                                       !- Humidity Indicating Day Schedule Name
  DefaultMultipliers,                     !- Dry-Bulb Temperature Range Modifier Type
  ,                                       !- Dry-Bulb Temperature Range Modifier Schedule Name
  ASHRAETau,                              !- Solar Model Indicator
  ,                                       !- Beam Solar Day Schedule Name
  ,                                       !- Diffuse Solar Day Schedule Name
  0.367,                                  !- ASHRAE Taub {dimensionless}
  2.428;                                  !- ASHRAE Taud {dimensionless}

OS:SpaceType,
  {a95d63a9-50d7-4051-861b-2bd4d6cd123b}, !- Handle
  Retail Back_Space - CEC T24 2001,       !- Name
  ,                                       !- Default Construction Set Name
  {af364584-64b2-48ba-ac71-722d582116e6}, !- Default Schedule Set Name
  {72b026cf-a243-404d-b3a6-10477c131772}, !- Group Rendering Name
  {8a3e34c4-cf8d-4d61-92ec-abd5670e6022}, !- Design Specification Outdoor Air Object Name
  Retail,                                 !- Standards Building Type
  Back_Space;                             !- Standards Space Type

OS:Rendering:Color,
  {72b026cf-a243-404d-b3a6-10477c131772}, !- Handle
  Rendering Color 1,                      !- Name
  120,                                    !- Rendering Red Value
  149,                                    !- Rendering Green Value
  230;                                    !- Rendering Blue Value

OS:SpaceType,
  {d279c456-ef7c-4662-9dd7-b7b529a78575}, !- Handle
  Retail Entry - CEC T24 2001,            !- Name
  ,                                       !- Default Construction Set Name
  {e1d0ea5e-93f3-484c-a086-7de8b9f8ff38}, !- Default Schedule Set Name
  {6840dc9f-112a-4a24-a25e-12508c354a86}, !- Group Rendering Name
  {9281556c-4425-4590-94f0-327d1f806bbc}, !- Design Specification Outdoor Air Object Name
  Retail,                                 !- Standards Building Type
  Entry;                                  !- Standards Space Type

OS:Rendering:Color,
  {6840dc9f-112a-4a24-a25e-12508c354a86}, !- Handle
  Rendering Color 2,                      !- Name
  169,                                    !- Rendering Red Value
  31,                                     !- Rendering Green Value
  31;                                     !- Rendering Blue Value

OS:SpaceType,
  {2f314d2d-3fe2-4738-972f-d91c9e136cd3}, !- Handle
  Retail Point_of_Sale - CEC T24 2001,    !- Name
  ,                                       !- Default Construction Set Name
  {21837e7d-b984-4962-b907-25be1acc607a}, !- Default Schedule Set Name
  {0d6b69c2-0dc8-4356-b85e-2ec92c21e343}, !- Group Rendering Name
  {0b820526-a351-4563-9d12-59346b132ee1}, !- Design Specification Outdoor Air Object Name
  Retail,                                 !- Standards Building Type
  Point_of_Sale;                          !- Standards Space Type

OS:Rendering:Color,
  {0d6b69c2-0dc8-4356-b85e-2ec92c21e343}, !- Handle
  Rendering Color 3,                      !- Name
  171,                                    !- Rendering Red Value
  222,                                    !- Rendering Green Value
  78;                                     !- Rendering Blue Value

OS:SpaceType,
  {e2557687-d18e-4ed2-8c58-cea72d4eccac}, !- Handle
  Retail Retail - CEC T24 2001,           !- Name
  ,                                       !- Default Construction Set Name
  {82433774-820d-49a2-a433-cc8e4725ca2a}, !- Default Schedule Set Name
  {24d2d21f-9738-4553-b27a-7898378e802d}, !- Group Rendering Name
  {5de97c1a-993b-47b8-9091-5d4e2be1ac3b}, !- Design Specification Outdoor Air Object Name
  Retail,                                 !- Standards Building Type
  Retail;                                 !- Standards Space Type

OS:Rendering:Color,
  {24d2d21f-9738-4553-b27a-7898378e802d}, !- Handle
  Rendering Color 4,                      !- Name
  171,                                    !- Rendering Red Value
  222,                                    !- Rendering Green Value
  78;                                     !- Rendering Blue Value

OS:Building,
  {f853a22c-03b6-40f2-9c79-3cdf6bdfc295}, !- Handle
  CEC T24 2001|RetailStandalone,          !- Name
  ,                                       !- Building Sector Type
  ,                                       !- North Axis {deg}
  ,                                       !- Nominal Floor to Floor Height {m}
  ,                                       !- Space Type Name
  {90137185-3f37-420c-96af-63b557651033}, !- Default Construction Set Name
  ,                                       !- Default Schedule Set Name
  ,                                       !- Standards Number of Stories
  ,                                       !- Standards Number of Above Ground Stories
  Retail;                                 !- Standards Building Type

OS:BuildingStory,
  {df042a53-9b3c-4fdc-a438-6b2ee3c12fcd}, !- Handle
  Story Ground,                           !- Name
  0,                                      !- Nominal Z Coordinate {m}
  6.096,                                  !- Nominal Floor to Floor Height {m}
  ,                                       !- Default Construction Set Name
  ,                                       !- Default Schedule Set Name
  ;                                       !- Group Rendering Name

OS:Space,
  {eefd5fb5-b6f0-4308-b736-f2c29a7f6cc3}, !- Handle
  Retail Retail A end_a - Story Ground,   !- Name
  {e2557687-d18e-4ed2-8c58-cea72d4eccac}, !- Space Type Name
  ,                                       !- Default Construction Set Name
  ,                                       !- Default Schedule Set Name
  -0,                                     !- Direction of Relative North {deg}
  -45.4393730029982,                      !- X Origin {m}
  -35.4995101585923,                      !- Y Origin {m}
  0,                                      !- Z Origin {m}
  {df042a53-9b3c-4fdc-a438-6b2ee3c12fcd}, !- Building Story Name
  {a46daee0-7fac-4ab0-bbc6-91e276ea4fb6}; !- Thermal Zone Name

OS:Surface,
  {144c703e-eccf-47cd-b48e-9d9b671a547c}, !- Handle
  Surface 1,                              !- Name
  Floor,                                  !- Surface Type
  ,                                       !- Construction Name
  {eefd5fb5-b6f0-4308-b736-f2c29a7f6cc3}, !- Space Name
  Ground,                                 !- Outside Boundary Condition
  ,                                       !- Outside Boundary Condition Object
  NoSun,                                  !- Sun Exposure
  NoWind,                                 !- Wind Exposure
  ,                                       !- View Factor to Ground
  ,                                       !- Number of Vertices
  -2.1316282072803e-014, 2.8421709430404e-014, 0, !- X,Y,Z Vertex 1 {m}
  -2.1316282072803e-014, 4.57200000000003, 0, !- X,Y,Z Vertex 2 {m}
  4.57199999999998, 4.57200000000003, 0,  !- X,Y,Z Vertex 3 {m}
  4.57199999999998, 2.8421709430404e-014, 0; !- X,Y,Z Vertex 4 {m}

OS:Surface,
  {a209a978-1e04-4bf4-80a5-c38eee280024}, !- Handle
  Surface 2,                              !- Name
  Wall,                                   !- Surface Type
  ,                                       !- Construction Name
  {eefd5fb5-b6f0-4308-b736-f2c29a7f6cc3}, !- Space Name
  Outdoors,                               !- Outside Boundary Condition
  ,                                       !- Outside Boundary Condition Object
  SunExposed,                             !- Sun Exposure
  WindExposed,                            !- Wind Exposure
  ,                                       !- View Factor to Ground
  ,                                       !- Number of Vertices
  -2.1316282072803e-014, 4.57200000000003, 6.096, !- X,Y,Z Vertex 1 {m}
  -2.1316282072803e-014, 4.57200000000003, 0, !- X,Y,Z Vertex 2 {m}
  -2.1316282072803e-014, 2.8421709430404e-014, 0, !- X,Y,Z Vertex 3 {m}
  -2.1316282072803e-014, 2.8421709430404e-014, 6.096; !- X,Y,Z Vertex 4 {m}

OS:Surface,
  {f2722a94-075e-46ae-9748-6d930c43f672}, !- Handle
  Surface 3,                              !- Name
  Wall,                                   !- Surface Type
  ,                                       !- Construction Name
  {eefd5fb5-b6f0-4308-b736-f2c29a7f6cc3}, !- Space Name
  Surface,                                !- Outside Boundary Condition
  {56a624f1-1f22-44be-9b4e-f3bf4d51f0c6}, !- Outside Boundary Condition Object
  NoSun,                                  !- Sun Exposure
  NoWind,                                 !- Wind Exposure
  ,                                       !- View Factor to Ground
  ,                                       !- Number of Vertices
  4.57199999999998, 4.57200000000003, 6.096, !- X,Y,Z Vertex 1 {m}
  4.57199999999998, 4.57200000000003, 0,  !- X,Y,Z Vertex 2 {m}
  -2.1316282072803e-014, 4.57200000000003, 0, !- X,Y,Z Vertex 3 {m}
  -2.1316282072803e-014, 4.57200000000003, 6.096; !- X,Y,Z Vertex 4 {m}

OS:Surface,
  {6898d171-b6af-473d-a24a-311ca99096a2}, !- Handle
  Surface 4,                              !- Name
  Wall,                                   !- Surface Type
  ,                                       !- Construction Name
  {eefd5fb5-b6f0-4308-b736-f2c29a7f6cc3}, !- Space Name
  Surface,                                !- Outside Boundary Condition
  {bc448bc9-5a7d-4044-8243-0cd24a48ff0e}, !- Outside Boundary Condition Object
  NoSun,                                  !- Sun Exposure
  NoWind,                                 !- Wind Exposure
  ,                                       !- View Factor to Ground
  ,                                       !- Number of Vertices
  4.57199999999998, 2.8421709430404e-014, 6.096, !- X,Y,Z Vertex 1 {m}
  4.57199999999998, 2.8421709430404e-014, 0, !- X,Y,Z Vertex 2 {m}
  4.57199999999998, 4.57200000000003, 0,  !- X,Y,Z Vertex 3 {m}
  4.57199999999998, 4.57200000000003, 6.096; !- X,Y,Z Vertex 4 {m}

OS:Surface,
  {9461e108-b0aa-4c74-8612-2fe744e9e87e}, !- Handle
  Surface 5,                              !- Name
  Wall,                                   !- Surface Type
  ,                                       !- Construction Name
  {eefd5fb5-b6f0-4308-b736-f2c29a7f6cc3}, !- Space Name
  Outdoors,                               !- Outside Boundary Condition
  ,                                       !- Outside Boundary Condition Object
  SunExposed,                             !- Sun Exposure
  WindExposed,                            !- Wind Exposure
  ,                                       !- View Factor to Ground
  ,                                       !- Number of Vertices
  -2.1316282072803e-014, 2.8421709430404e-014, 6.096, !- X,Y,Z Vertex 1 {m}
  -2.1316282072803e-014, 2.8421709430404e-014, 0, !- X,Y,Z Vertex 2 {m}
  4.57199999999998, 2.8421709430404e-014, 0, !- X,Y,Z Vertex 3 {m}
  4.57199999999998, 2.8421709430404e-014, 6.096; !- X,Y,Z Vertex 4 {m}

OS:Surface,
  {943fb958-be99-4a87-ad03-754769c41257}, !- Handle
  Surface 6,                              !- Name
  RoofCeiling,                            !- Surface Type
  ,                                       !- Construction Name
  {eefd5fb5-b6f0-4308-b736-f2c29a7f6cc3}, !- Space Name
  Outdoors,                               !- Outside Boundary Condition
  ,                                       !- Outside Boundary Condition Object
  SunExposed,                             !- Sun Exposure
  WindExposed,                            !- Wind Exposure
  ,                                       !- View Factor to Ground
  ,                                       !- Number of Vertices
  4.57199999999998, 2.8421709430404e-014, 6.096, !- X,Y,Z Vertex 1 {m}
  4.57199999999998, 4.57200000000003, 6.096, !- X,Y,Z Vertex 2 {m}
  -2.1316282072803e-014, 4.57200000000003, 6.096, !- X,Y,Z Vertex 3 {m}
  -2.1316282072803e-014, 2.8421709430404e-014, 6.096; !- X,Y,Z Vertex 4 {m}

OS:ThermalZone,
  {a46daee0-7fac-4ab0-bbc6-91e276ea4fb6}, !- Handle
  Zone Retail Retail A end_a - Story Ground, !- Name
  1,                                      !- Multiplier
  ,                                       !- Ceiling Height {m}
  ,                                       !- Volume {m3}
  ,                                       !- Floor Area {m2}
  ,                                       !- Zone Inside Convection Algorithm
  ,                                       !- Zone Outside Convection Algorithm
  ,                                       !- Zone Conditioning Equipment List Name
  {e8b08a76-2619-4038-b92f-baf97a31a7b6}, !- Zone Air Inlet Port List
  {cb02e00a-6e77-4259-a2f1-ebab6a28846f}, !- Zone Air Exhaust Port List
  {5f679612-0032-4780-851a-000c9cbfb25b}, !- Zone Air Node Name
  {e68df03f-d6c9-49a9-9538-6ada51a905b1}, !- Zone Return Air Node Name
  ,                                       !- Primary Daylighting Control Name
  ,                                       !- Fraction of Zone Controlled by Primary Daylighting Control
  ,                                       !- Secondary Daylighting Control Name
  ,                                       !- Fraction of Zone Controlled by Secondary Daylighting Control
  ,                                       !- Illuminance Map Name
  ,                                       !- Group Rendering Name
  {2000bd78-ea3e-4327-96cd-e5831525aca8}, !- Thermostat Name
  No;                                     !- Use Ideal Air Loads

OS:Node,
  {132942ce-6805-4829-bd31-608e8cab5f0a}, !- Handle
  Node 1,                                 !- Name
  {5f679612-0032-4780-851a-000c9cbfb25b}, !- Inlet Port
  ;                                       !- Outlet Port

OS:Connection,
  {5f679612-0032-4780-851a-000c9cbfb25b}, !- Handle
  {6d3aa8c1-7675-478f-93aa-c08f295bde30}, !- Name
  {a46daee0-7fac-4ab0-bbc6-91e276ea4fb6}, !- Source Object
  11,                                     !- Outlet Port
  {132942ce-6805-4829-bd31-608e8cab5f0a}, !- Target Object
  2;                                      !- Inlet Port

OS:PortList,
  {e8b08a76-2619-4038-b92f-baf97a31a7b6}, !- Handle
  Port List 1,                            !- Name
  {a46daee0-7fac-4ab0-bbc6-91e276ea4fb6}, !- HVAC Component
  {b94f217d-46fd-4a11-994b-f6e23b4d0fb4}; !- Port 1

OS:PortList,
  {cb02e00a-6e77-4259-a2f1-ebab6a28846f}, !- Handle
  Port List 2,                            !- Name
  {a46daee0-7fac-4ab0-bbc6-91e276ea4fb6}; !- HVAC Component

OS:Sizing:Zone,
  {9e8ad7da-b93d-44b4-9d23-bf9d7f179758}, !- Handle
  {a46daee0-7fac-4ab0-bbc6-91e276ea4fb6}, !- Zone or ZoneList Name
  SupplyAirTemperature,                   !- Zone Cooling Design Supply Air Temperature Input Method
  12.8,                                   !- Zone Cooling Design Supply Air Temperature {C}
  11.11,                                  !- Zone Cooling Design Supply Air Temperature Difference {deltaC}
  SupplyAirTemperature,                   !- Zone Heating Design Supply Air Temperature Input Method
  40,                                     !- Zone Heating Design Supply Air Temperature {C}
  11.11,                                  !- Zone Heating Design Supply Air Temperature Difference {deltaC}
  0.0085,                                 !- Zone Cooling Design Supply Air Humidity Ratio {kg-H2O/kg-air}
  0.008,                                  !- Zone Heating Design Supply Air Humidity Ratio {kg-H2O/kg-air}
  ,                                       !- Zone Heating Sizing Factor
  ,                                       !- Zone Cooling Sizing Factor
  DesignDay,                              !- Cooling Design Air Flow Method
  ,                                       !- Cooling Design Air Flow Rate {m3/s}
  ,                                       !- Cooling Minimum Air Flow per Zone Floor Area {m3/s-m2}
  ,                                       !- Cooling Minimum Air Flow {m3/s}
  ,                                       !- Cooling Minimum Air Flow Fraction
  DesignDay,                              !- Heating Design Air Flow Method
  ,                                       !- Heating Design Air Flow Rate {m3/s}
  ,                                       !- Heating Maximum Air Flow per Zone Floor Area {m3/s-m2}
  ,                                       !- Heating Maximum Air Flow {m3/s}
  ,                                       !- Heating Maximum Air Flow Fraction
  ,                                       !- Design Zone Air Distribution Effectiveness in Cooling Mode
  ,                                       !- Design Zone Air Distribution Effectiveness in Heating Mode
  No,                                     !- Account for Dedicated Outdoor Air System
  NeutralSupplyAir,                       !- Dedicated Outdoor Air System Control Strategy
  autosize,                               !- Dedicated Outdoor Air Low Setpoint Temperature for Design {C}
  autosize;                               !- Dedicated Outdoor Air High Setpoint Temperature for Design {C}

OS:ZoneHVAC:EquipmentList,
  {ce826931-e51e-475f-8e41-2fc81b0a43be}, !- Handle
  Zone HVAC Equipment List 1,             !- Name
  {a46daee0-7fac-4ab0-bbc6-91e276ea4fb6}, !- Thermal Zone
  {9aac44e5-b778-43e2-ad72-cdfbaa5e22a2}, !- Zone Equipment 1
  1,                                      !- Zone Equipment Cooling Sequence 1
  1;                                      !- Zone Equipment Heating or No-Load Sequence 1

OS:Space,
  {161b1dc7-69ad-4def-9138-9e942baa1529}, !- Handle
  Retail Retail B end_a - Story Ground,   !- Name
  {e2557687-d18e-4ed2-8c58-cea72d4eccac}, !- Space Type Name
  ,                                       !- Default Construction Set Name
  ,                                       !- Default Schedule Set Name
  -0,                                     !- Direction of Relative North {deg}
  -45.4393730029982,                      !- X Origin {m}
  -30.9275101585923,                      !- Y Origin {m}
  0,                                      !- Z Origin {m}
  {df042a53-9b3c-4fdc-a438-6b2ee3c12fcd}, !- Building Story Name
  {5f23a1e8-27ae-4cb2-85bf-f5d910e23885}; !- Thermal Zone Name

OS:Surface,
  {29518343-20d0-4f08-acb2-365b0a15117f}, !- Handle
  Surface 7,                              !- Name
  Floor,                                  !- Surface Type
  ,                                       !- Construction Name
  {161b1dc7-69ad-4def-9138-9e942baa1529}, !- Space Name
  Ground,                                 !- Outside Boundary Condition
  ,                                       !- Outside Boundary Condition Object
  NoSun,                                  !- Sun Exposure
  NoWind,                                 !- Wind Exposure
  ,                                       !- View Factor to Ground
  ,                                       !- Number of Vertices
  -2.1316282072803e-014, 3.19744231092045e-014, 0, !- X,Y,Z Vertex 1 {m}
  -2.1316282072803e-014, 61.8550203171846, 0, !- X,Y,Z Vertex 2 {m}
  4.57199999999998, 61.8550203171846, 0,  !- X,Y,Z Vertex 3 {m}
  4.57199999999998, 3.19744231092045e-014, 0; !- X,Y,Z Vertex 4 {m}

OS:Surface,
  {c91bb4a3-5fd7-47a3-9a28-4194f0a23327}, !- Handle
  Surface 8,                              !- Name
  Wall,                                   !- Surface Type
  ,                                       !- Construction Name
  {161b1dc7-69ad-4def-9138-9e942baa1529}, !- Space Name
  Outdoors,                               !- Outside Boundary Condition
  ,                                       !- Outside Boundary Condition Object
  SunExposed,                             !- Sun Exposure
  WindExposed,                            !- Wind Exposure
  ,                                       !- View Factor to Ground
  ,                                       !- Number of Vertices
  -2.1316282072803e-014, 61.8550203171846, 6.096, !- X,Y,Z Vertex 1 {m}
  -2.1316282072803e-014, 61.8550203171846, 0, !- X,Y,Z Vertex 2 {m}
  -2.1316282072803e-014, 3.19744231092045e-014, 0, !- X,Y,Z Vertex 3 {m}
  -2.1316282072803e-014, 3.19744231092045e-014, 6.096; !- X,Y,Z Vertex 4 {m}

OS:Surface,
  {8a12e035-0cfc-4b01-8f61-a8c0b0ae7b4a}, !- Handle
  Surface 9,                              !- Name
  Wall,                                   !- Surface Type
  ,                                       !- Construction Name
  {161b1dc7-69ad-4def-9138-9e942baa1529}, !- Space Name
  Surface,                                !- Outside Boundary Condition
  {f63a17a4-f9ac-4eb7-bac2-fbb0f0494573}, !- Outside Boundary Condition Object
  NoSun,                                  !- Sun Exposure
  NoWind,                                 !- Wind Exposure
  ,                                       !- View Factor to Ground
  ,                                       !- Number of Vertices
  4.57199999999998, 61.8550203171846, 6.096, !- X,Y,Z Vertex 1 {m}