
OS:Version,
  {7f3ab7b6-b43e-4a66-8af5-fb08d924abe9}, !- Handle
  2.1.0;                                  !- Version Identifier

OS:Facility,
  {7cfc893b-153d-4dda-b298-3fc0620231a2}; !- Handle

OS:SimulationControl,
  {928775d0-f0cd-4b2e-ad79-05dc1b7aeeeb}, !- Handle
  ,                                       !- Do Zone Sizing Calculation
  ,                                       !- Do System Sizing Calculation
  ,                                       !- Do Plant Sizing Calculation
  Yes,                                    !- Run Simulation for Sizing Periods
  No;                                     !- Run Simulation for Weather File Run Periods

OS:Sizing:Parameters,
  {25cbaf9d-16d1-4dfa-9420-0500d1696da3}, !- Handle
  1.25,                                   !- Heating Sizing Factor
  1.15;                                   !- Cooling Sizing Factor

OS:Timestep,
  {04c6acdd-ce1c-4932-a813-db66f8cd3d56}, !- Handle
  6;                                      !- Number of Timesteps per Hour

OS:ShadowCalculation,
  {d8f2bdab-f979-4d5b-8b8b-931935dd137f}, !- Handle
  20,                                     !- Calculation Frequency
  15000;                                  !- Maximum Figures in Shadow Overlap Calculations

OS:HeatBalanceAlgorithm,
  {bcd4c494-f75c-4b28-ad70-9139909889df}, !- Handle
  ConductionTransferFunction,             !- Algorithm
  200;                                    !- Surface Temperature Upper Limit {C}

OS:RunPeriod,
  {311f2322-7ed0-493a-ba40-b711912aba88}, !- Handle
  Run Period 1,                           !- Name
  1,                                      !- Begin Month
  1,                                      !- Begin Day of Month
  12,                                     !- End Month
  31,                                     !- End Day of Month
  ,                                       !- Use Weather File Holidays and Special Days
  ,                                       !- Use Weather File Daylight Saving Period
  ,                                       !- Apply Weekend Holiday Rule
  ,                                       !- Use Weather File Rain Indicators
  ,                                       !- Use Weather File Snow Indicators
  ;                                       !- Number of Times Runperiod to be Repeated

OS:LifeCycleCost:Parameters,
  {46124197-d19a-49c9-852a-616b7edb490f}, !- Handle
  ,                                       !- Analysis Type
  ,                                       !- Discounting Convention
  ,                                       !- Inflation Approach
  ,                                       !- Real Discount Rate
  ,                                       !- Nominal Discount Rate
  ,                                       !- Inflation
  ,                                       !- Base Date Month
  ,                                       !- Base Date Year
  ,                                       !- Service Date Month
  ,                                       !- Service Date Year
  ;                                       !- Length of Study Period in Years

OS:WeatherFile,
  {524dac1a-1db1-4bff-af88-7110d1974c9d}, !- Handle
  Climate Zone 3,                         !- City
  CA,                                     !- State Province Region
  USA,                                    !- Country
  CTZRV2,                                 !- Data Source
  724930,                                 !- WMO Number
  37.7,                                   !- Latitude {deg}
  -122.2,                                 !- Longitude {deg}
  -8,                                     !- Time Zone {hr}
  2,                                      !- Elevation {m}
  file:///C:/Sites/bricr/weather/CZ03RV2.epw, !- Url
  ;                                       !- Checksum

OS:Site,
  {da1e4aca-dbf9-466d-a3c4-d18cf03dca0c}, !- Handle
  Climate Zone 3_CA_USA,                  !- Name
  37.7,                                   !- Latitude {deg}
  -122.2,                                 !- Longitude {deg}
  -8,                                     !- Time Zone {hr}
  2,                                      !- Elevation {m}
  ;                                       !- Terrain

OS:Site:WaterMainsTemperature,
  {313f9197-c13f-4de3-8953-703bfddef026}, !- Handle
  Correlation,                            !- Calculation Method
  ,                                       !- Temperature Schedule Name
  14.1416666666667,                       !- Annual Average Outdoor Air Temperature {C}
  7.8;                                    !- Maximum Difference In Monthly Average Outdoor Air Temperatures {deltaC}

OS:SizingPeriod:DesignDay,
  {541f3a41-c67d-469b-a941-9dfb73681ff2}, !- Handle
  Climate Zone 3 Ann Htg 99.6% Condns DB, !- Name
  2.9,                                    !- Maximum Dry-Bulb Temperature {C}
  0,                                      !- Daily Dry-Bulb Temperature Range {deltaC}
  2.9,                                    !- Humidity Indicating Conditions at Maximum Dry-Bulb
  101301,                                 !- Barometric Pressure {Pa}
  2.2,                                    !- Wind Speed {m/s}
  50,                                     !- Wind Direction {deg}
  0,                                      !- Sky Clearness
  0,                                      !- Rain Indicator
  0,                                      !- Snow Indicator
  21,                                     !- Day of Month
  1,                                      !- Month
  WinterDesignDay,                        !- Day Type
  0,                                      !- Daylight Saving Time Indicator
  Wetbulb,                                !- Humidity Indicating Type
  ,                                       !- Humidity Indicating Day Schedule Name
  DefaultMultipliers,                     !- Dry-Bulb Temperature Range Modifier Type
  ,                                       !- Dry-Bulb Temperature Range Modifier Schedule Name
  ASHRAEClearSky;                         !- Solar Model Indicator

OS:SizingPeriod:DesignDay,
  {db1cf732-25cc-43d4-adbb-45df99a2cdcd}, !- Handle
  Climate Zone 3 Ann Clg .4% Condns DB=>MWB, !- Name
  27.7,                                   !- Maximum Dry-Bulb Temperature {C}
  7.4,                                    !- Daily Dry-Bulb Temperature Range {deltaC}
  18.3,                                   !- Humidity Indicating Conditions at Maximum Dry-Bulb
  101301,                                 !- Barometric Pressure {Pa}
  4.9,                                    !- Wind Speed {m/s}
  290,                                    !- Wind Direction {deg}
  0,                                      !- Sky Clearness
  0,                                      !- Rain Indicator
  0,                                      !- Snow Indicator
  21,                                     !- Day of Month
  8,                                      !- Month
  SummerDesignDay,                        !- Day Type
  0,                                      !- Daylight Saving Time Indicator
  Wetbulb,                                !- Humidity Indicating Type
  ,                                       !- Humidity Indicating Day Schedule Name
  DefaultMultipliers,                     !- Dry-Bulb Temperature Range Modifier Type
  ,                                       !- Dry-Bulb Temperature Range Modifier Schedule Name
  ASHRAETau,                              !- Solar Model Indicator
  ,                                       !- Beam Solar Day Schedule Name
  ,                                       !- Diffuse Solar Day Schedule Name
  0.367,                                  !- ASHRAE Taub {dimensionless}
  2.428;                                  !- ASHRAE Taud {dimensionless}

OS:SizingPeriod:DesignDay,
  {055768e5-1391-4bee-8eef-16cdaa3cc25f}, !- Handle
  Climate Zone 3 Ann Clg .4% Condns WB=>MDB, !- Name
  25.5,                                   !- Maximum Dry-Bulb Temperature {C}
  7.4,                                    !- Daily Dry-Bulb Temperature Range {deltaC}
  19.8,                                   !- Humidity Indicating Conditions at Maximum Dry-Bulb
  101301,                                 !- Barometric Pressure {Pa}
  4.9,                                    !- Wind Speed {m/s}
  290,                                    !- Wind Direction {deg}
  0,                                      !- Sky Clearness
  0,                                      !- Rain Indicator
  0,                                      !- Snow Indicator
  21,                                     !- Day of Month
  8,                                      !- Month
  SummerDesignDay,                        !- Day Type
  0,                                      !- Daylight Saving Time Indicator
  Wetbulb,                                !- Humidity Indicating Type
  ,                                       !- Humidity Indicating Day Schedule Name
  DefaultMultipliers,                     !- Dry-Bulb Temperature Range Modifier Type
  ,                                       !- Dry-Bulb Temperature Range Modifier Schedule Name
  ASHRAETau,                              !- Solar Model Indicator
  ,                                       !- Beam Solar Day Schedule Name
  ,                                       !- Diffuse Solar Day Schedule Name
  0.367,                                  !- ASHRAE Taub {dimensionless}
  2.428;                                  !- ASHRAE Taud {dimensionless}

OS:ClimateZones,
  {6772d7b8-9044-4305-816a-b27042656b8d}, !- Handle
  ,                                       !- Active Institution
  ,                                       !- Active Year
  ,                                       !- Climate Zone Institution Name 1
  ,                                       !- Climate Zone Document Name 1
  ,                                       !- Climate Zone Document Year 1
  ,                                       !- Climate Zone Value 1
  CEC,                                    !- Climate Zone Institution Name 2
  California Climate Zone Descriptions,   !- Climate Zone Document Name 2
  1995,                                   !- Climate Zone Document Year 2
  CEC3;                                   !- Climate Zone Value 2

OS:SpaceType,
  {5f959385-f8c3-4297-98b3-3c1fd4258006}, !- Handle
  Office WholeBuilding - Sm Office - CEC Pre-1978, !- Name
  ,                                       !- Default Construction Set Name
  {55c1b8eb-beca-48be-ac90-99a402da8695}, !- Default Schedule Set Name
  ,                                       !- Group Rendering Name
  {ff533a10-ac33-4a08-b956-fbb3a76a2726}, !- Design Specification Outdoor Air Object Name
  Office,                                 !- Standards Building Type
  WholeBuilding - Sm Office;              !- Standards Space Type

OS:Building,
  {be2bf626-b80a-4ee9-b9c3-e2f1a0815a76}, !- Handle
  CEC Pre-1978|SmallOffice,               !- Name
  ,                                       !- Building Sector Type
  ,                                       !- North Axis {deg}
  ,                                       !- Nominal Floor to Floor Height {m}
  {5f959385-f8c3-4297-98b3-3c1fd4258006}, !- Space Type Name
  {9baae7e3-6d75-4df1-8a21-5f8f513d2616}, !- Default Construction Set Name
  ,                                       !- Default Schedule Set Name
  ,                                       !- Standards Number of Stories
  ,                                       !- Standards Number of Above Ground Stories
  Office;                                 !- Standards Building Type

OS:BuildingStory,
  {2d678df7-ed96-4626-a16e-5b6b9515b726}, !- Handle
  Story Ground,                           !- Name
  0,                                      !- Nominal Z Coordinate {m}
  3.048,                                  !- Nominal Floor to Floor Height {m}
  ,                                       !- Default Construction Set Name
  ,                                       !- Default Schedule Set Name
  ;                                       !- Group Rendering Name

OS:Space,
  {106fcd25-0a90-4c42-97d6-bd9eb1bba8a8}, !- Handle
  West Perimeter Space - Story Ground,    !- Name
  ,                                       !- Space Type Name
  ,                                       !- Default Construction Set Name
  ,                                       !- Default Schedule Set Name
  -0,                                     !- Direction of Relative North {deg}
  -13.8424174189337,                      !- X Origin {m}
  -9.22827827928915,                      !- Y Origin {m}
  0,                                      !- Z Origin {m}
  {2d678df7-ed96-4626-a16e-5b6b9515b726}, !- Building Story Name
  {aa819a38-1bf6-4694-b09a-205ff1b3480c}; !- Thermal Zone Name

OS:Surface,
  {b7e76d6b-07c0-4828-9275-3e69c2cc3bdd}, !- Handle
  Surface 1,                              !- Name
  Floor,                                  !- Surface Type
  ,                                       !- Construction Name
  {106fcd25-0a90-4c42-97d6-bd9eb1bba8a8}, !- Space Name
  Ground,                                 !- Outside Boundary Condition
  ,                                       !- Outside Boundary Condition Object
  NoSun,                                  !- Sun Exposure
  NoWind,                                 !- Wind Exposure
  ,                                       !- View Factor to Ground
  ,                                       !- Number of Vertices
  3.19744231092045e-014, 5.32907051820075e-015, 0, !- X,Y,Z Vertex 1 {m}
  3.19744231092045e-014, 18.4565565585783, 0, !- X,Y,Z Vertex 2 {m}
  4.572, 13.8845565585783, 0,             !- X,Y,Z Vertex 3 {m}
  4.572, 4.572, 0;                        !- X,Y,Z Vertex 4 {m}

OS:Surface,
  {3cee9f44-5d68-4a41-adb2-a7f846259914}, !- Handle
  Surface 2,                              !- Name
  Wall,                                   !- Surface Type
  ,                                       !- Construction Name
  {106fcd25-0a90-4c42-97d6-bd9eb1bba8a8}, !- Space Name
  Outdoors,                               !- Outside Boundary Condition
  ,                                       !- Outside Boundary Condition Object
  SunExposed,                             !- Sun Exposure
  WindExposed,                            !- Wind Exposure
  ,                                       !- View Factor to Ground
  ,                                       !- Number of Vertices
  3.19744231092045e-014, 18.4565565585783, 3.048, !- X,Y,Z Vertex 1 {m}
  3.19744231092045e-014, 18.4565565585783, 0, !- X,Y,Z Vertex 2 {m}
  3.19744231092045e-014, 5.32907051820075e-015, 0, !- X,Y,Z Vertex 3 {m}
  3.19744231092045e-014, 5.32907051820075e-015, 3.048; !- X,Y,Z Vertex 4 {m}

OS:Surface,
  {053309c1-f949-4ec0-9dfa-46f11b844549}, !- Handle
  Surface 3,                              !- Name
  Wall,                                   !- Surface Type
  ,                                       !- Construction Name
  {106fcd25-0a90-4c42-97d6-bd9eb1bba8a8}, !- Space Name
  Surface,                                !- Outside Boundary Condition
  {b813542e-aeca-4c87-a07d-04d37ff03587}, !- Outside Boundary Condition Object
  NoSun,                                  !- Sun Exposure
  NoWind,                                 !- Wind Exposure
  ,                                       !- View Factor to Ground
  ,                                       !- Number of Vertices
  4.572, 13.8845565585783, 3.048,         !- X,Y,Z Vertex 1 {m}
  4.572, 13.8845565585783, 0,             !- X,Y,Z Vertex 2 {m}
  3.19744231092045e-014, 18.4565565585783, 0, !- X,Y,Z Vertex 3 {m}
  3.19744231092045e-014, 18.4565565585783, 3.048; !- X,Y,Z Vertex 4 {m}

OS:Surface,
  {b83431b7-933b-47f6-a835-f0bfb510cffe}, !- Handle
  Surface 4,                              !- Name
  Wall,                                   !- Surface Type
  ,                                       !- Construction Name
  {106fcd25-0a90-4c42-97d6-bd9eb1bba8a8}, !- Space Name
  Surface,                                !- Outside Boundary Condition
  {dcc17f8c-a118-4b54-bd3b-afc635ed33ea}, !- Outside Boundary Condition Object
  NoSun,                                  !- Sun Exposure
  NoWind,                                 !- Wind Exposure
  ,                                       !- View Factor to Ground
  ,                                       !- Number of Vertices
  4.572, 4.572, 3.048,                    !- X,Y,Z Vertex 1 {m}
  4.572, 4.572, 0,                        !- X,Y,Z Vertex 2 {m}
  4.572, 13.8845565585783, 0,             !- X,Y,Z Vertex 3 {m}
  4.572, 13.8845565585783, 3.048;         !- X,Y,Z Vertex 4 {m}

OS:Surface,
  {ef6ced01-9a74-4bd0-8a3e-ad281f09f1bb}, !- Handle
  Surface 5,                              !- Name
  Wall,                                   !- Surface Type
  ,                                       !- Construction Name
  {106fcd25-0a90-4c42-97d6-bd9eb1bba8a8}, !- Space Name
  Surface,                                !- Outside Boundary Condition
  {bad282a8-58e1-431b-924b-86911130daa0}, !- Outside Boundary Condition Object
  NoSun,                                  !- Sun Exposure
  NoWind,                                 !- Wind Exposure
  ,                                       !- View Factor to Ground
  ,                                       !- Number of Vertices
  3.19744231092045e-014, 5.32907051820075e-015, 3.048, !- X,Y,Z Vertex 1 {m}
  3.19744231092045e-014, 5.32907051820075e-015, 0, !- X,Y,Z Vertex 2 {m}
  4.572, 4.572, 0,                        !- X,Y,Z Vertex 3 {m}
  4.572, 4.572, 3.048;                    !- X,Y,Z Vertex 4 {m}

OS:Surface,
  {95c54dee-93f8-4d7d-82de-20fbb13a27df}, !- Handle
  Surface 6,                              !- Name
  RoofCeiling,                            !- Surface Type
  ,                                       !- Construction Name
  {106fcd25-0a90-4c42-97d6-bd9eb1bba8a8}, !- Space Name
  Outdoors,                               !- Outside Boundary Condition
  ,                                       !- Outside Boundary Condition Object
  SunExposed,                             !- Sun Exposure
  WindExposed,                            !- Wind Exposure
  ,                                       !- View Factor to Ground
  ,                                       !- Number of Vertices
  4.572, 4.572, 3.048,                    !- X,Y,Z Vertex 1 {m}
  4.572, 13.8845565585783, 3.048,         !- X,Y,Z Vertex 2 {m}
  3.19744231092045e-014, 18.4565565585783, 3.048, !- X,Y,Z Vertex 3 {m}
  3.19744231092045e-014, 5.32907051820075e-015, 3.048; !- X,Y,Z Vertex 4 {m}

OS:ThermalZone,
  {aa819a38-1bf6-4694-b09a-205ff1b3480c}, !- Handle
  Zone West Perimeter Space - Story Ground, !- Name
  1,                                      !- Multiplier
  ,                                       !- Ceiling Height {m}
  ,                                       !- Volume {m3}
  ,                                       !- Floor Area {m2}
  ,                                       !- Zone Inside Convection Algorithm
  ,                                       !- Zone Outside Convection Algorithm
  ,                                       !- Zone Conditioning Equipment List Name
  {6ab16114-3748-4161-9ebe-864de89a4959}, !- Zone Air Inlet Port List
  {3556ff4e-1f4c-4ea2-a6bd-f4da2b350e81}, !- Zone Air Exhaust Port List
  {e60d9c19-829e-43f5-be61-4b15cc876acb}, !- Zone Air Node Name
  {4d963f20-21e7-419e-b6db-ac40b5623862}, !- Zone Return Air Node Name
  ,                                       !- Primary Daylighting Control Name
  ,                                       !- Fraction of Zone Controlled by Primary Daylighting Control
  ,                                       !- Secondary Daylighting Control Name
  ,                                       !- Fraction of Zone Controlled by Secondary Daylighting Control
  ,                                       !- Illuminance Map Name
  ,                                       !- Group Rendering Name
  {1cc1e7ac-8993-49c6-a71f-cfdd866dd4af}, !- Thermostat Name
  No;                                     !- Use Ideal Air Loads

OS:Node,
  {a4c00584-7a14-4cfa-bf6d-f6a0a5048c22}, !- Handle
  Node 1,                                 !- Name
  {e60d9c19-829e-43f5-be61-4b15cc876acb}, !- Inlet Port
  ;                                       !- Outlet Port

OS:Connection,
  {e60d9c19-829e-43f5-be61-4b15cc876acb}, !- Handle
  {5c0a779a-9c7e-4223-a507-14d5262433fc}, !- Name
  {aa819a38-1bf6-4694-b09a-205ff1b3480c}, !- Source Object
  11,                                     !- Outlet Port
  {a4c00584-7a14-4cfa-bf6d-f6a0a5048c22}, !- Target Object
  2;                                      !- Inlet Port

OS:PortList,
  {6ab16114-3748-4161-9ebe-864de89a4959}, !- Handle
  Port List 1,                            !- Name
  {aa819a38-1bf6-4694-b09a-205ff1b3480c}, !- HVAC Component
  {636bc4c1-055f-4101-9bcb-a80b01d66cf3}; !- Port 1

OS:PortList,
  {3556ff4e-1f4c-4ea2-a6bd-f4da2b350e81}, !- Handle
  Port List 2,                            !- Name
  {aa819a38-1bf6-4694-b09a-205ff1b3480c}; !- HVAC Component

OS:Sizing:Zone,
  {f9aa79d9-95d9-41a7-b556-e0ed34a1edb3}, !- Handle
  {aa819a38-1bf6-4694-b09a-205ff1b3480c}, !- Zone or ZoneList Name
  SupplyAirTemperature,                   !- Zone Cooling Design Supply Air Temperature Input Method
  12.8,                                   !- Zone Cooling Design Supply Air Temperature {C}
  11.11,                                  !- Zone Cooling Design Supply Air Temperature Difference {deltaC}
  SupplyAirTemperature,                   !- Zone Heating Design Supply Air Temperature Input Method
  40,                                     !- Zone Heating Design Supply Air Temperature {C}
  11.11,                                  !- Zone Heating Design Supply Air Temperature Difference {deltaC}
  0.0085,                                 !- Zone Cooling Design Supply Air Humidity Ratio {kg-H2O/kg-air}
  0.008,                                  !- Zone Heating Design Supply Air Humidity Ratio {kg-H2O/kg-air}
  ,                                       !- Zone Heating Sizing Factor
  ,                                       !- Zone Cooling Sizing Factor
  DesignDay,                              !- Cooling Design Air Flow Method
  ,                                       !- Cooling Design Air Flow Rate {m3/s}
  ,                                       !- Cooling Minimum Air Flow per Zone Floor Area {m3/s-m2}
  ,                                       !- Cooling Minimum Air Flow {m3/s}
  ,                                       !- Cooling Minimum Air Flow Fraction
  DesignDay,                              !- Heating Design Air Flow Method
  ,                                       !- Heating Design Air Flow Rate {m3/s}
  ,                                       !- Heating Maximum Air Flow per Zone Floor Area {m3/s-m2}
  ,                                       !- Heating Maximum Air Flow {m3/s}
  ,                                       !- Heating Maximum Air Flow Fraction
  ,                                       !- Design Zone Air Distribution Effectiveness in Cooling Mode
  ,                                       !- Design Zone Air Distribution Effectiveness in Heating Mode
  No,                                     !- Account for Dedicated Outdoor Air System
  NeutralSupplyAir,                       !- Dedicated Outdoor Air System Control Strategy
  autosize,                               !- Dedicated Outdoor Air Low Setpoint Temperature for Design {C}
  autosize;                               !- Dedicated Outdoor Air High Setpoint Temperature for Design {C}

OS:ZoneHVAC:EquipmentList,
  {fb84dbec-c8d5-4330-8992-64df5a6cfae5}, !- Handle
  Zone HVAC Equipment List 1,             !- Name
  {aa819a38-1bf6-4694-b09a-205ff1b3480c}, !- Thermal Zone
  {035b410b-feb8-408a-a927-8ee8b3f02752}, !- Zone Equipment 1
  1,                                      !- Zone Equipment Cooling Sequence 1
  1;                                      !- Zone Equipment Heating or No-Load Sequence 1

OS:Space,
  {b216d72e-5651-4381-8c00-40ecfbda3015}, !- Handle
  North Perimeter Space - Story Ground,   !- Name
  ,                                       !- Space Type Name
  ,                                       !- Default Construction Set Name
  ,                                       !- Default Schedule Set Name
  -0,                                     !- Direction of Relative North {deg}
  -13.8424174189337,                      !- X Origin {m}
  9.22827827928915,                       !- Y Origin {m}
  0,                                      !- Z Origin {m}
  {2d678df7-ed96-4626-a16e-5b6b9515b726}, !- Building Story Name
  {227d4bbd-2b1a-433c-8fc8-4340f04d1c26}; !- Thermal Zone Name

OS:Surface,
  {6febf346-e842-4deb-aab3-2fae3183b711}, !- Handle
  Surface 7,                              !- Name
  Floor,                                  !- Surface Type
  ,                                       !- Construction Name
  {b216d72e-5651-4381-8c00-40ecfbda3015}, !- Space Name
  Ground,                                 !- Outside Boundary Condition
  ,                                       !- Outside Boundary Condition Object
  NoSun,                                  !- Sun Exposure
  NoWind,                                 !- Wind Exposure
  ,                                       !- View Factor to Ground
  ,                                       !- Number of Vertices
  3.19744231092045e-014, -5.32907051820075e-015, 0, !- X,Y,Z Vertex 1 {m}
  27.6848348378674, -5.32907051820075e-015, 0, !- X,Y,Z Vertex 2 {m}
  23.1128348378675, -4.572, 0,            !- X,Y,Z Vertex 3 {m}
  4.572, -4.572, 0;                       !- X,Y,Z Vertex 4 {m}

OS:Surface,
  {606b3351-feb4-4525-b16a-414dc27ac58d}, !- Handle
  Surface 8,                              !- Name
  Wall,                                   !- Surface Type
  ,                                       !- Construction Name
  {b216d72e-5651-4381-8c00-40ecfbda3015}, !- Space Name
  Outdoors,                               !- Outside Boundary Condition
  ,                                       !- Outside Boundary Condition Object
  SunExposed,                             !- Sun Exposure
  WindExposed,                            !- Wind Exposure
  ,                                       !- View Factor to Ground
  ,                                       !- Number of Vertices
  27.6848348378674, -5.32907051820075e-015, 3.048, !- X,Y,Z Vertex 1 {m}
  27.6848348378674, -5.32907051820075e-015, 0, !- X,Y,Z Vertex 2 {m}
  3.19744231092045e-014, -5.32907051820075e-015, 0, !- X,Y,Z Vertex 3 {m}
  3.19744231092045e-014, -5.32907051820075e-015, 3.048; !- X,Y,Z Vertex 4 {m}

OS:Surface,
  {2513d67a-c1d2-45e4-b3a0-a07b9ab934cd}, !- Handle
  Surface 9,                              !- Name
  Wall,                                   !- Surface Type
  ,                                       !- Construction Name
  {b216d72e-5651-4381-8c00-40ecfbda3015}, !- Space Name
  Surface,                                !- Outside Boundary Condition
  {c5c79dcd-afa3-4b95-bdc9-30755bcd06f4}, !- Outside Boundary Condition Object
  NoSun,                                  !- Sun Exposure
  NoWind,                                 !- Wind Exposure
  ,                                       !- View Factor to Ground
  ,                                       !- Number of Vertices
  23.1128348378675, -4.572, 3.048,        !- X,Y,Z Vertex 1 {m}
  23.1128348378675, -4.572, 0,            !- X,Y,Z Vertex 2 {m}
  27.6848348378674, -5.32907051820075e-015, 0, !- X,Y,Z Vertex 3 {m}
  27.6848348378674, -5.32907051820075e-015, 3.048; !- X,Y,Z Vertex 4 {m}

OS:Surface,
  {fa51adbc-cf4b-4f2c-9de1-84f676bbe714}, !- Handle
  Surface 10,                             !- Name
  Wall,                                   !- Surface Type
  ,                                       !- Construction Name
  {b216d72e-5651-4381-8c00-40ecfbda3015}, !- Space Name
  Surface,                                !- Outside Boundary Condition
  {a21d0a34-54b5-4e72-9aed-84f0a1ad3bb9}, !- Outside Boundary Condition Object
  NoSun,                                  !- Sun Exposure
  NoWind,                                 !- Wind Exposure
  ,                                       !- View Factor to Ground
  ,                                       !- Number of Vertices
  4.572, -4.572, 3.048,                   !- X,Y,Z Vertex 1 {m}
  4.572, -4.572, 0,                       !- X,Y,Z Vertex 2 {m}
  23.1128348378675, -4.572, 0,            !- X,Y,Z Vertex 3 {m}
  23.1128348378675, -4.572, 3.048;        !- X,Y,Z Vertex 4 {m}

OS:Surface,
  {b813542e-aeca-4c87-a07d-04d37ff03587}, !- Handle
  Surface 11,                             !- Name
  Wall,                                   !- Surface Type
  ,                                       !- Construction Name
  {b216d72e-5651-4381-8c00-40ecfbda3015}, !- Space Name
  Surface,                                !- Outside Boundary Condition
  {053309c1-f949-4ec0-9dfa-46f11b844549}, !- Outside Boundary Condition Object
  NoSun,                                  !- Sun Exposure
  NoWind,                                 !- Wind Exposure
  ,                                       !- View Factor to Ground
  ,                                       !- Number of Vertices
  3.19744231092045e-014, -5.32907051820075e-015, 3.048, !- X,Y,Z Vertex 1 {m}
  3.19744231092045e-014, -5.32907051820075e-015, 0, !- X,Y,Z Vertex 2 {m}
  4.572, -4.572, 0,                       !- X,Y,Z Vertex 3 {m}
  4.572, -4.572, 3.048;                   !- X,Y,Z Vertex 4 {m}

OS:Surface,
  {506cfe65-6995-410e-9a60-82e728c674df}, !- Handle
  Surface 12,                             !- Name
  RoofCeiling,                            !- Surface Type
  ,                                       !- Construction Name
  {b216d72e-5651-4381-8c00-40ecfbda3015}, !- Space Name
  Outdoors,                               !- Outside Boundary Condition
  ,                                       !- Outside Boundary Condition Object
  SunExposed,                             !- Sun Exposure