
OS:Version,
  {c1a80343-a1d0-47da-bd1f-ce46a892ac5b}, !- Handle
  2.1.0;                                  !- Version Identifier

OS:Facility,
  {285daa8e-6446-4f2e-a890-09f64283dd9e}; !- Handle

OS:SimulationControl,
  {36eb31f3-5a47-46ce-9b83-88fa30338b7f}, !- Handle
  ,                                       !- Do Zone Sizing Calculation
  ,                                       !- Do System Sizing Calculation
  ,                                       !- Do Plant Sizing Calculation
  No,                                     !- Run Simulation for Sizing Periods
  Yes;                                    !- Run Simulation for Weather File Run Periods

OS:Sizing:Parameters,
  {1edf3431-7eab-4c61-9684-0822c28c7bb8}, !- Handle
  1.25,                                   !- Heating Sizing Factor
  1.15;                                   !- Cooling Sizing Factor

OS:Timestep,
  {6cdf6daf-804b-4223-bc88-d0732f2b91da}, !- Handle
  6;                                      !- Number of Timesteps per Hour

OS:ShadowCalculation,
  {29c9bdad-75cd-46bd-bf97-8bf0da33b5dc}, !- Handle
  20,                                     !- Calculation Frequency
  15000;                                  !- Maximum Figures in Shadow Overlap Calculations

OS:HeatBalanceAlgorithm,
  {06541bd2-a419-4c45-8560-5e7da1ceb77d}, !- Handle
  ConductionTransferFunction,             !- Algorithm
  200;                                    !- Surface Temperature Upper Limit {C}

OS:RunPeriod,
  {a9300947-5b4d-4483-80b8-5389000ed2fc}, !- Handle
  Run Period 1,                           !- Name
  1,                                      !- Begin Month
  1,                                      !- Begin Day of Month
  12,                                     !- End Month
  31,                                     !- End Day of Month
  ,                                       !- Use Weather File Holidays and Special Days
  ,                                       !- Use Weather File Daylight Saving Period
  ,                                       !- Apply Weekend Holiday Rule
  ,                                       !- Use Weather File Rain Indicators
  ,                                       !- Use Weather File Snow Indicators
  ;                                       !- Number of Times Runperiod to be Repeated

OS:LifeCycleCost:Parameters,
  {0a3acc6e-02df-4568-b72b-56ae2c26304f}, !- Handle
  ,                                       !- Analysis Type
  ,                                       !- Discounting Convention
  ,                                       !- Inflation Approach
  ,                                       !- Real Discount Rate
  ,                                       !- Nominal Discount Rate
  ,                                       !- Inflation
  ,                                       !- Base Date Month
  ,                                       !- Base Date Year
  ,                                       !- Service Date Month
  ,                                       !- Service Date Year
  ;                                       !- Length of Study Period in Years

OS:WeatherFile,
  {262fa342-fd11-45dc-a87a-4c740b87fb71}, !- Handle
  Climate Zone 3,                         !- City
  CA,                                     !- State Province Region
  USA,                                    !- Country
  CTZRV2,                                 !- Data Source
  724930,                                 !- WMO Number
  37.7,                                   !- Latitude {deg}
  -122.2,                                 !- Longitude {deg}
  -8,                                     !- Time Zone {hr}
  2,                                      !- Elevation {m}
  file:///C:/Sites/bricr/weather/CZ03RV2.epw, !- Url
  ;                                       !- Checksum

OS:Site,
  {adf03871-9178-42d2-933a-2686424391f4}, !- Handle
  Climate Zone 3_CA_USA,                  !- Name
  37.7,                                   !- Latitude {deg}
  -122.2,                                 !- Longitude {deg}
  -8,                                     !- Time Zone {hr}
  2,                                      !- Elevation {m}
  ;                                       !- Terrain

OS:Site:WaterMainsTemperature,
  {a7fddf6c-534e-47b9-b625-420afb15332a}, !- Handle
  Correlation,                            !- Calculation Method
  ,                                       !- Temperature Schedule Name
  14.1416666666667,                       !- Annual Average Outdoor Air Temperature {C}
  7.8;                                    !- Maximum Difference In Monthly Average Outdoor Air Temperatures {deltaC}

OS:SizingPeriod:DesignDay,
  {df27a7d9-09a2-4ab6-b712-a39d8f6c1797}, !- Handle
  Climate Zone 3 Ann Clg .4% Condns WB=>MDB, !- Name
  25.5,                                   !- Maximum Dry-Bulb Temperature {C}
  7.4,                                    !- Daily Dry-Bulb Temperature Range {deltaC}
  19.8,                                   !- Humidity Indicating Conditions at Maximum Dry-Bulb
  101301,                                 !- Barometric Pressure {Pa}
  4.9,                                    !- Wind Speed {m/s}
  290,                                    !- Wind Direction {deg}
  0,                                      !- Sky Clearness
  0,                                      !- Rain Indicator
  0,                                      !- Snow Indicator
  21,                                     !- Day of Month
  8,                                      !- Month
  SummerDesignDay,                        !- Day Type
  0,                                      !- Daylight Saving Time Indicator
  Wetbulb,                                !- Humidity Indicating Type
  ,                                       !- Humidity Indicating Day Schedule Name
  DefaultMultipliers,                     !- Dry-Bulb Temperature Range Modifier Type
  ,                                       !- Dry-Bulb Temperature Range Modifier Schedule Name
  ASHRAETau,                              !- Solar Model Indicator
  ,                                       !- Beam Solar Day Schedule Name
  ,                                       !- Diffuse Solar Day Schedule Name
  0.367,                                  !- ASHRAE Taub {dimensionless}
  2.428;                                  !- ASHRAE Taud {dimensionless}

OS:SizingPeriod:DesignDay,
  {1f2676fc-54b8-49db-90ce-cbc2a558fed8}, !- Handle
  Climate Zone 3 Ann Clg .4% Condns DB=>MWB, !- Name
  27.7,                                   !- Maximum Dry-Bulb Temperature {C}
  7.4,                                    !- Daily Dry-Bulb Temperature Range {deltaC}
  18.3,                                   !- Humidity Indicating Conditions at Maximum Dry-Bulb
  101301,                                 !- Barometric Pressure {Pa}
  4.9,                                    !- Wind Speed {m/s}
  290,                                    !- Wind Direction {deg}
  0,                                      !- Sky Clearness
  0,                                      !- Rain Indicator
  0,                                      !- Snow Indicator
  21,                                     !- Day of Month
  8,                                      !- Month
  SummerDesignDay,                        !- Day Type
  0,                                      !- Daylight Saving Time Indicator
  Wetbulb,                                !- Humidity Indicating Type
  ,                                       !- Humidity Indicating Day Schedule Name
  DefaultMultipliers,                     !- Dry-Bulb Temperature Range Modifier Type
  ,                                       !- Dry-Bulb Temperature Range Modifier Schedule Name
  ASHRAETau,                              !- Solar Model Indicator
  ,                                       !- Beam Solar Day Schedule Name
  ,                                       !- Diffuse Solar Day Schedule Name
  0.367,                                  !- ASHRAE Taub {dimensionless}
  2.428;                                  !- ASHRAE Taud {dimensionless}

OS:SizingPeriod:DesignDay,
  {4e63eef8-1444-42cf-8d86-5f76793309e2}, !- Handle
  Climate Zone 3 Ann Htg 99.6% Condns DB, !- Name
  2.9,                                    !- Maximum Dry-Bulb Temperature {C}
  0,                                      !- Daily Dry-Bulb Temperature Range {deltaC}
  2.9,                                    !- Humidity Indicating Conditions at Maximum Dry-Bulb
  101301,                                 !- Barometric Pressure {Pa}
  2.2,                                    !- Wind Speed {m/s}
  50,                                     !- Wind Direction {deg}
  0,                                      !- Sky Clearness
  0,                                      !- Rain Indicator
  0,                                      !- Snow Indicator
  21,                                     !- Day of Month
  1,                                      !- Month
  WinterDesignDay,                        !- Day Type
  0,                                      !- Daylight Saving Time Indicator
  Wetbulb,                                !- Humidity Indicating Type
  ,                                       !- Humidity Indicating Day Schedule Name
  DefaultMultipliers,                     !- Dry-Bulb Temperature Range Modifier Type
  ,                                       !- Dry-Bulb Temperature Range Modifier Schedule Name
  ASHRAEClearSky;                         !- Solar Model Indicator

OS:ClimateZones,
  {f4e20820-a06d-487b-a616-ff565572ad4e}, !- Handle
  ,                                       !- Active Institution
  ,                                       !- Active Year
  ,                                       !- Climate Zone Institution Name 1
  ,                                       !- Climate Zone Document Name 1
  ,                                       !- Climate Zone Document Year 1
  ,                                       !- Climate Zone Value 1
  CEC,                                    !- Climate Zone Institution Name 2
  California Climate Zone Descriptions,   !- Climate Zone Document Name 2
  1995,                                   !- Climate Zone Document Year 2
  CEC3;                                   !- Climate Zone Value 2

OS:SpaceType,
  {2e697099-d44d-43c6-a1bc-98c4acccc86d}, !- Handle
  Retail Back_Space - CEC Pre-1978,       !- Name
  ,                                       !- Default Construction Set Name
  {44337377-23bf-4f91-b73a-68073ce8637d}, !- Default Schedule Set Name
  ,                                       !- Group Rendering Name
  {2c970f1a-5b86-4d1a-b2d4-49b138eb1e74}, !- Design Specification Outdoor Air Object Name
  Retail,                                 !- Standards Building Type
  Back_Space;                             !- Standards Space Type

OS:SpaceType,
  {25789efc-2710-41ed-aa2f-4449d6a60845}, !- Handle
  Retail Entry - CEC Pre-1978,            !- Name
  ,                                       !- Default Construction Set Name
  {903352d4-0b78-415a-9950-f5ba4cfefbe2}, !- Default Schedule Set Name
  ,                                       !- Group Rendering Name
  {a646b41f-8457-4b7a-a52d-7685f3fc1b0e}, !- Design Specification Outdoor Air Object Name
  Retail,                                 !- Standards Building Type
  Entry;                                  !- Standards Space Type

OS:SpaceType,
  {593ca388-86e5-44c4-821b-ac0bb3197453}, !- Handle
  Retail Point_of_Sale - CEC Pre-1978,    !- Name
  ,                                       !- Default Construction Set Name
  {068a5c6b-fae4-41d9-a92a-7da23de1efed}, !- Default Schedule Set Name
  ,                                       !- Group Rendering Name
  {8b5d93ef-14e8-40df-ab28-15d95f02f663}, !- Design Specification Outdoor Air Object Name
  Retail,                                 !- Standards Building Type
  Point_of_Sale;                          !- Standards Space Type

OS:SpaceType,
  {7a454cb3-5ec3-44d5-82c0-c0f68666cb13}, !- Handle
  Retail Retail - CEC Pre-1978,           !- Name
  ,                                       !- Default Construction Set Name
  {48cd0f71-b76a-4f84-b95f-cf1f9a8e978d}, !- Default Schedule Set Name
  ,                                       !- Group Rendering Name
  {f6dac6af-440e-468b-93ca-d1ceed158f67}, !- Design Specification Outdoor Air Object Name
  Retail,                                 !- Standards Building Type
  Retail;                                 !- Standards Space Type

OS:Building,
  {e2bd6bf1-1142-4161-9c38-3ea84f052132}, !- Handle
  CEC Pre-1978|RetailStandalone,          !- Name
  ,                                       !- Building Sector Type
  ,                                       !- North Axis {deg}
  ,                                       !- Nominal Floor to Floor Height {m}
  ,                                       !- Space Type Name
  {6a948e82-304d-4c99-ab00-cf0b3688684e}, !- Default Construction Set Name
  ,                                       !- Default Schedule Set Name
  ,                                       !- Standards Number of Stories
  ,                                       !- Standards Number of Above Ground Stories
  Retail;                                 !- Standards Building Type

OS:BuildingStory,
  {eae7ae86-ed9f-4928-9330-977cfab2efcd}, !- Handle
  Story Ground,                           !- Name
  0,                                      !- Nominal Z Coordinate {m}
  6.096,                                  !- Nominal Floor to Floor Height {m}
  ,                                       !- Default Construction Set Name
  ,                                       !- Default Schedule Set Name
  ;                                       !- Group Rendering Name

OS:Space,
  {e878ba93-5b3d-49e7-a387-0db28296507c}, !- Handle
  Retail Retail A end_a - Story Ground,   !- Name
  {7a454cb3-5ec3-44d5-82c0-c0f68666cb13}, !- Space Type Name
  ,                                       !- Default Construction Set Name
  ,                                       !- Default Schedule Set Name
  -0,                                     !- Direction of Relative North {deg}
  -27.2995579507068,                      !- X Origin {m}
  -20.9996599620822,                      !- Y Origin {m}
  0,                                      !- Z Origin {m}
  {eae7ae86-ed9f-4928-9330-977cfab2efcd}, !- Building Story Name
  {3e17b096-bc65-4c64-b06c-c4fd864045bb}; !- Thermal Zone Name

OS:Surface,
  {d374e4af-220c-4a81-b7ed-0429c5b57d3a}, !- Handle
  Surface 1,                              !- Name
  Floor,                                  !- Surface Type
  ,                                       !- Construction Name
  {e878ba93-5b3d-49e7-a387-0db28296507c}, !- Space Name
  Ground,                                 !- Outside Boundary Condition
  ,                                       !- Outside Boundary Condition Object
  NoSun,                                  !- Sun Exposure
  NoWind,                                 !- Wind Exposure
  ,                                       !- View Factor to Ground
  ,                                       !- Number of Vertices
  2.48689957516035e-014, -3.19744231092045e-014, 0, !- X,Y,Z Vertex 1 {m}
  2.48689957516035e-014, 4.57199999999997, 0, !- X,Y,Z Vertex 2 {m}
  4.57200000000002, 4.57199999999997, 0,  !- X,Y,Z Vertex 3 {m}
  4.57200000000002, -3.19744231092045e-014, 0; !- X,Y,Z Vertex 4 {m}

OS:Surface,
  {c2b10a2e-ca81-4fae-a3f7-9ad977ff7e8d}, !- Handle
  Surface 2,                              !- Name
  Wall,                                   !- Surface Type
  ,                                       !- Construction Name
  {e878ba93-5b3d-49e7-a387-0db28296507c}, !- Space Name
  Outdoors,                               !- Outside Boundary Condition
  ,                                       !- Outside Boundary Condition Object
  SunExposed,                             !- Sun Exposure
  WindExposed,                            !- Wind Exposure
  ,                                       !- View Factor to Ground
  ,                                       !- Number of Vertices
  2.48689957516035e-014, 4.57199999999997, 6.096, !- X,Y,Z Vertex 1 {m}
  2.48689957516035e-014, 4.57199999999997, 0, !- X,Y,Z Vertex 2 {m}
  2.48689957516035e-014, -3.19744231092045e-014, 0, !- X,Y,Z Vertex 3 {m}
  2.48689957516035e-014, -3.19744231092045e-014, 6.096; !- X,Y,Z Vertex 4 {m}

OS:Surface,
  {21e881bb-d9a2-47fc-ad36-a22cb7aeec56}, !- Handle
  Surface 3,                              !- Name
  Wall,                                   !- Surface Type
  ,                                       !- Construction Name
  {e878ba93-5b3d-49e7-a387-0db28296507c}, !- Space Name
  Surface,                                !- Outside Boundary Condition
  {98275311-3190-4cfd-94ce-d738ec1a5113}, !- Outside Boundary Condition Object
  NoSun,                                  !- Sun Exposure
  NoWind,                                 !- Wind Exposure
  ,                                       !- View Factor to Ground
  ,                                       !- Number of Vertices
  4.57200000000002, 4.57199999999997, 6.096, !- X,Y,Z Vertex 1 {m}
  4.57200000000002, 4.57199999999997, 0,  !- X,Y,Z Vertex 2 {m}
  2.48689957516035e-014, 4.57199999999997, 0, !- X,Y,Z Vertex 3 {m}
  2.48689957516035e-014, 4.57199999999997, 6.096; !- X,Y,Z Vertex 4 {m}

OS:Surface,
  {de5b3adb-1770-4579-9e7b-869bb67a7bdc}, !- Handle
  Surface 4,                              !- Name
  Wall,                                   !- Surface Type
  ,                                       !- Construction Name
  {e878ba93-5b3d-49e7-a387-0db28296507c}, !- Space Name
  Surface,                                !- Outside Boundary Condition
  {e68043f9-6707-4a04-b27d-a99eca52c26f}, !- Outside Boundary Condition Object
  NoSun,                                  !- Sun Exposure
  NoWind,                                 !- Wind Exposure
  ,                                       !- View Factor to Ground
  ,                                       !- Number of Vertices
  4.57200000000002, -3.19744231092045e-014, 6.096, !- X,Y,Z Vertex 1 {m}
  4.57200000000002, -3.19744231092045e-014, 0, !- X,Y,Z Vertex 2 {m}
  4.57200000000002, 4.57199999999997, 0,  !- X,Y,Z Vertex 3 {m}
  4.57200000000002, 4.57199999999997, 6.096; !- X,Y,Z Vertex 4 {m}

OS:Surface,
  {1f1f1267-faf7-4362-ac65-c3136a75e66b}, !- Handle
  Surface 5,                              !- Name
  Wall,                                   !- Surface Type
  ,                                       !- Construction Name
  {e878ba93-5b3d-49e7-a387-0db28296507c}, !- Space Name
  Outdoors,                               !- Outside Boundary Condition
  ,                                       !- Outside Boundary Condition Object
  SunExposed,                             !- Sun Exposure
  WindExposed,                            !- Wind Exposure
  ,                                       !- View Factor to Ground
  ,                                       !- Number of Vertices
  2.48689957516035e-014, -3.19744231092045e-014, 6.096, !- X,Y,Z Vertex 1 {m}
  2.48689957516035e-014, -3.19744231092045e-014, 0, !- X,Y,Z Vertex 2 {m}
  4.57200000000002, -3.19744231092045e-014, 0, !- X,Y,Z Vertex 3 {m}
  4.57200000000002, -3.19744231092045e-014, 6.096; !- X,Y,Z Vertex 4 {m}

OS:Surface,
  {5a5b8113-1201-4111-bc18-9d2e70b285e3}, !- Handle
  Surface 6,                              !- Name
  RoofCeiling,                            !- Surface Type
  ,                                       !- Construction Name
  {e878ba93-5b3d-49e7-a387-0db28296507c}, !- Space Name
  Outdoors,                               !- Outside Boundary Condition
  ,                                       !- Outside Boundary Condition Object
  SunExposed,                             !- Sun Exposure
  WindExposed,                            !- Wind Exposure
  ,                                       !- View Factor to Ground
  ,                                       !- Number of Vertices
  4.57200000000002, -3.19744231092045e-014, 6.096, !- X,Y,Z Vertex 1 {m}
  4.57200000000002, 4.57199999999997, 6.096, !- X,Y,Z Vertex 2 {m}
  2.48689957516035e-014, 4.57199999999997, 6.096, !- X,Y,Z Vertex 3 {m}
  2.48689957516035e-014, -3.19744231092045e-014, 6.096; !- X,Y,Z Vertex 4 {m}

OS:ThermalZone,
  {3e17b096-bc65-4c64-b06c-c4fd864045bb}, !- Handle
  Zone Retail Retail A end_a - Story Ground, !- Name
  1,                                      !- Multiplier
  ,                                       !- Ceiling Height {m}
  ,                                       !- Volume {m3}
  ,                                       !- Floor Area {m2}
  ,                                       !- Zone Inside Convection Algorithm
  ,                                       !- Zone Outside Convection Algorithm
  ,                                       !- Zone Conditioning Equipment List Name
  {a81a76f1-dc0c-42ee-bba5-c1b424380ff7}, !- Zone Air Inlet Port List
  {2d15b7f8-aed9-4e84-8a85-a15469621d44}, !- Zone Air Exhaust Port List
  {1d2c39c3-023d-4bcf-8802-480e01232dde}, !- Zone Air Node Name
  {5a6e4f21-e3ba-4e29-9d5e-4a68f22ffd2b}, !- Zone Return Air Node Name
  ,                                       !- Primary Daylighting Control Name
  ,                                       !- Fraction of Zone Controlled by Primary Daylighting Control
  ,                                       !- Secondary Daylighting Control Name
  ,                                       !- Fraction of Zone Controlled by Secondary Daylighting Control
  ,                                       !- Illuminance Map Name
  ,                                       !- Group Rendering Name
  {5ed67b1b-02e7-4089-b76e-cd6846adde3d}, !- Thermostat Name
  No;                                     !- Use Ideal Air Loads

OS:Node,
  {423b7dfd-316f-4bf3-88ad-f95afbc43374}, !- Handle
  Node 1,                                 !- Name
  {1d2c39c3-023d-4bcf-8802-480e01232dde}, !- Inlet Port
  ;                                       !- Outlet Port

OS:Connection,
  {1d2c39c3-023d-4bcf-8802-480e01232dde}, !- Handle
  {0cf96096-faec-4d9e-87dc-5388f8e285f1}, !- Name
  {3e17b096-bc65-4c64-b06c-c4fd864045bb}, !- Source Object
  11,                                     !- Outlet Port
  {423b7dfd-316f-4bf3-88ad-f95afbc43374}, !- Target Object
  2;                                      !- Inlet Port

OS:PortList,
  {a81a76f1-dc0c-42ee-bba5-c1b424380ff7}, !- Handle
  Port List 1,                            !- Name
  {3e17b096-bc65-4c64-b06c-c4fd864045bb}, !- HVAC Component
  {22c709f9-2f6c-4df2-9b52-3527c4966ed2}; !- Port 1

OS:PortList,
  {2d15b7f8-aed9-4e84-8a85-a15469621d44}, !- Handle
  Port List 2,                            !- Name
  {3e17b096-bc65-4c64-b06c-c4fd864045bb}; !- HVAC Component

OS:Sizing:Zone,
  {cd4e5ab7-5590-4a5f-8a3d-7293aea3670f}, !- Handle
  {3e17b096-bc65-4c64-b06c-c4fd864045bb}, !- Zone or ZoneList Name
  SupplyAirTemperature,                   !- Zone Cooling Design Supply Air Temperature Input Method
  12.8,                                   !- Zone Cooling Design Supply Air Temperature {C}
  11.11,                                  !- Zone Cooling Design Supply Air Temperature Difference {deltaC}
  SupplyAirTemperature,                   !- Zone Heating Design Supply Air Temperature Input Method
  40,                                     !- Zone Heating Design Supply Air Temperature {C}
  11.11,                                  !- Zone Heating Design Supply Air Temperature Difference {deltaC}
  0.0085,                                 !- Zone Cooling Design Supply Air Humidity Ratio {kg-H2O/kg-air}
  0.008,                                  !- Zone Heating Design Supply Air Humidity Ratio {kg-H2O/kg-air}
  ,                                       !- Zone Heating Sizing Factor
  ,                                       !- Zone Cooling Sizing Factor
  DesignDay,                              !- Cooling Design Air Flow Method
  ,                                       !- Cooling Design Air Flow Rate {m3/s}
  ,                                       !- Cooling Minimum Air Flow per Zone Floor Area {m3/s-m2}
  ,                                       !- Cooling Minimum Air Flow {m3/s}
  ,                                       !- Cooling Minimum Air Flow Fraction
  DesignDay,                              !- Heating Design Air Flow Method
  ,                                       !- Heating Design Air Flow Rate {m3/s}
  ,                                       !- Heating Maximum Air Flow per Zone Floor Area {m3/s-m2}
  ,                                       !- Heating Maximum Air Flow {m3/s}
  ,                                       !- Heating Maximum Air Flow Fraction
  ,                                       !- Design Zone Air Distribution Effectiveness in Cooling Mode
  ,                                       !- Design Zone Air Distribution Effectiveness in Heating Mode
  No,                                     !- Account for Dedicated Outdoor Air System
  NeutralSupplyAir,                       !- Dedicated Outdoor Air System Control Strategy
  autosize,                               !- Dedicated Outdoor Air Low Setpoint Temperature for Design {C}
  autosize;                               !- Dedicated Outdoor Air High Setpoint Temperature for Design {C}

OS:ZoneHVAC:EquipmentList,
  {a8199d1b-43e5-429c-b708-33beb6023053}, !- Handle
  Zone HVAC Equipment List 1,             !- Name
  {3e17b096-bc65-4c64-b06c-c4fd864045bb}, !- Thermal Zone
  {65be7674-3876-4574-9f91-733799215029}, !- Zone Equipment 1
  1,                                      !- Zone Equipment Cooling Sequence 1
  1;                                      !- Zone Equipment Heating or No-Load Sequence 1

OS:Space,
  {0beb1c87-da3f-4461-adc8-6509acb0d6c4}, !- Handle
  Retail Retail B end_a - Story Ground,   !- Name
  {7a454cb3-5ec3-44d5-82c0-c0f68666cb13}, !- Space Type Name
  ,                                       !- Default Construction Set Name
  ,                                       !- Default Schedule Set Name
  -0,                                     !- Direction of Relative North {deg}
  -27.2995579507068,                      !- X Origin {m}
  -16.4276599620822,                      !- Y Origin {m}
  0,                                      !- Z Origin {m}
  {eae7ae86-ed9f-4928-9330-977cfab2efcd}, !- Building Story Name
  {e4a7f88b-9f00-43c2-8d28-ffb9ac19e6e8}; !- Thermal Zone Name

OS:Surface,
  {e671f993-0983-4bf0-affb-bd8bba1be655}, !- Handle
  Surface 7,                              !- Name
  Floor,                                  !- Surface Type
  ,                                       !- Construction Name
  {0beb1c87-da3f-4461-adc8-6509acb0d6c4}, !- Space Name
  Ground,                                 !- Outside Boundary Condition
  ,                                       !- Outside Boundary Condition Object
  NoSun,                                  !- Sun Exposure
  NoWind,                                 !- Wind Exposure
  ,                                       !- View Factor to Ground
  ,                                       !- Number of Vertices
  2.48689957516035e-014, -2.8421709430404e-014, 0, !- X,Y,Z Vertex 1 {m}
  2.48689957516035e-014, 32.8553199241644, 0, !- X,Y,Z Vertex 2 {m}
  4.57200000000002, 32.8553199241644, 0,  !- X,Y,Z Vertex 3 {m}
  4.57200000000002, -2.8421709430404e-014, 0; !- X,Y,Z Vertex 4 {m}

OS:Surface,
  {a71a1f7a-6ad4-463a-aaaf-8fc3d9978275}, !- Handle
  Surface 8,                              !- Name
  Wall,                                   !- Surface Type
  ,                                       !- Construction Name
  {0beb1c87-da3f-4461-adc8-6509acb0d6c4}, !- Space Name
  Outdoors,                               !- Outside Boundary Condition
  ,                                       !- Outside Boundary Condition Object
  SunExposed,                             !- Sun Exposure
  WindExposed,                            !- Wind Exposure
  ,                                       !- View Factor to Ground
  ,                                       !- Number of Vertices
  2.48689957516035e-014, 32.8553199241644, 6.096, !- X,Y,Z Vertex 1 {m}
  2.48689957516035e-014, 32.8553199241644, 0, !- X,Y,Z Vertex 2 {m}
  2.48689957516035e-014, -2.8421709430404e-014, 0, !- X,Y,Z Vertex 3 {m}
  2.48689957516035e-014, -2.8421709430404e-014, 6.096; !- X,Y,Z Vertex 4 {m}

OS:Surface,
  {72b70ada-ba2f-41bc-ba46-09602d841aee}, !- Handle
  Surface 9,                              !- Name
  Wall,                                   !- Surface Type
  ,                                       !- Construction Name
  {0beb1c87-da3f-4461-adc8-6509acb0d6c4}, !- Space Name
  Surface,                                !- Outside Boundary Condition
  {992ec414-77d8-4e38-b1e3-07cb028ac12a}, !- Outside Boundary Condition Object
  NoSun,                                  !- Sun Exposure
  NoWind,                                 !- Wind Exposure
  ,                                       !- View Factor to Ground
  ,                                       !- Number of Vertices
  4.57200000000002, 32.8553199241644, 6.096, !- X,Y,Z Vertex 1 {m}
  4.57200000000002, 32.8553199241644, 0,  !- X,Y,Z Vertex 2 {m}
  2.48689957516035e-014, 32.8553199241644, 0, !- X,Y,Z Vertex 3 {m}
  2.48689957516035e-014, 32.8553199241644, 6.096; !- X,Y,Z Vertex 4 {m}

OS:Surface,
  {acc54e28-2a5c-4d14-b905-ac0e84f041ef}, !- Handle
  Surface 10,                             !- Name
  Wall,                                   !- Surface Type
  ,                                       !- Construction Name
  {0beb1c87-da3f-4461-adc8-6509acb0d6c4}, !- Space Name
  Surface,                                !- Outside Boundary Condition
  {9d231db8-8e62-4d81-9046-c8b22b380e8e}, !- Outside Boundary Condition Object
  NoSun,                                  !- Sun Exposure
  NoWind,                                 !- Wind Exposure
  ,                                       !- View Factor to Ground
  ,                                       !- Number of Vertices
  4.57200000000002, -2.8421709430404e-014, 6.096, !- X,Y,Z Vertex 1 {m}