
OS:Version,
  {a8400c2f-8f5d-4fc6-8949-bd7c21cbf99d}, !- Handle
  2.1.0;                                  !- Version Identifier

OS:Facility,
  {177347c8-6584-4f7d-bb01-7568359bf7a5}; !- Handle

OS:SimulationControl,
  {328c2556-c2b5-45e1-83a1-a70066fa8a77}, !- Handle
  ,                                       !- Do Zone Sizing Calculation
  ,                                       !- Do System Sizing Calculation
  ,                                       !- Do Plant Sizing Calculation
  Yes,                                    !- Run Simulation for Sizing Periods
  No;                                     !- Run Simulation for Weather File Run Periods

OS:Sizing:Parameters,
  {23bfa6fb-5441-4d51-b232-a7dd191b5484}, !- Handle
  1.25,                                   !- Heating Sizing Factor
  1.15;                                   !- Cooling Sizing Factor

OS:Timestep,
  {231729c8-264c-4962-be8b-a5496c33d40b}, !- Handle
  6;                                      !- Number of Timesteps per Hour

OS:ShadowCalculation,
  {fe17a7f2-47a0-436a-8776-e1aa201daf0f}, !- Handle
  20,                                     !- Calculation Frequency
  15000;                                  !- Maximum Figures in Shadow Overlap Calculations

OS:HeatBalanceAlgorithm,
  {c900f664-d9be-4486-8860-8ceaeb3b200e}, !- Handle
  ConductionTransferFunction,             !- Algorithm
  200;                                    !- Surface Temperature Upper Limit {C}

OS:RunPeriod,
  {fb5929de-761a-4aa2-9673-e8c8d161d3ab}, !- Handle
  Run Period 1,                           !- Name
  1,                                      !- Begin Month
  1,                                      !- Begin Day of Month
  12,                                     !- End Month
  31,                                     !- End Day of Month
  ,                                       !- Use Weather File Holidays and Special Days
  ,                                       !- Use Weather File Daylight Saving Period
  ,                                       !- Apply Weekend Holiday Rule
  ,                                       !- Use Weather File Rain Indicators
  ,                                       !- Use Weather File Snow Indicators
  ;                                       !- Number of Times Runperiod to be Repeated

OS:LifeCycleCost:Parameters,
  {991c86f5-0bd2-4f20-8611-875f1f095f41}, !- Handle
  ,                                       !- Analysis Type
  ,                                       !- Discounting Convention
  ,                                       !- Inflation Approach
  ,                                       !- Real Discount Rate
  ,                                       !- Nominal Discount Rate
  ,                                       !- Inflation
  ,                                       !- Base Date Month
  ,                                       !- Base Date Year
  ,                                       !- Service Date Month
  ,                                       !- Service Date Year
  ;                                       !- Length of Study Period in Years

OS:WeatherFile,
  {c14b29cf-c6a9-4318-b357-6d6dc7c7e61e}, !- Handle
  Climate Zone 3,                         !- City
  CA,                                     !- State Province Region
  USA,                                    !- Country
  CTZRV2,                                 !- Data Source
  724930,                                 !- WMO Number
  37.7,                                   !- Latitude {deg}
  -122.2,                                 !- Longitude {deg}
  -8,                                     !- Time Zone {hr}
  2,                                      !- Elevation {m}
  file:///C:/Sites/bricr/weather/CZ03RV2.epw, !- Url
  ;                                       !- Checksum

OS:Site,
  {c95ff8cc-2b1a-43ff-a375-ee8ead49f04d}, !- Handle
  Climate Zone 3_CA_USA,                  !- Name
  37.7,                                   !- Latitude {deg}
  -122.2,                                 !- Longitude {deg}
  -8,                                     !- Time Zone {hr}
  2,                                      !- Elevation {m}
  ;                                       !- Terrain

OS:Site:WaterMainsTemperature,
  {7f37fd70-ded4-4f1a-876c-f0c6b060946f}, !- Handle
  Correlation,                            !- Calculation Method
  ,                                       !- Temperature Schedule Name
  14.1416666666667,                       !- Annual Average Outdoor Air Temperature {C}
  7.8;                                    !- Maximum Difference In Monthly Average Outdoor Air Temperatures {deltaC}

OS:SizingPeriod:DesignDay,
  {a7b6bc93-63d1-4fb1-89d9-7e57118d89da}, !- Handle
  Climate Zone 3 Ann Htg 99.6% Condns DB, !- Name
  2.9,                                    !- Maximum Dry-Bulb Temperature {C}
  0,                                      !- Daily Dry-Bulb Temperature Range {deltaC}
  2.9,                                    !- Humidity Indicating Conditions at Maximum Dry-Bulb
  101301,                                 !- Barometric Pressure {Pa}
  2.2,                                    !- Wind Speed {m/s}
  50,                                     !- Wind Direction {deg}
  0,                                      !- Sky Clearness
  0,                                      !- Rain Indicator
  0,                                      !- Snow Indicator
  21,                                     !- Day of Month
  1,                                      !- Month
  WinterDesignDay,                        !- Day Type
  0,                                      !- Daylight Saving Time Indicator
  Wetbulb,                                !- Humidity Indicating Type
  ,                                       !- Humidity Indicating Day Schedule Name
  DefaultMultipliers,                     !- Dry-Bulb Temperature Range Modifier Type
  ,                                       !- Dry-Bulb Temperature Range Modifier Schedule Name
  ASHRAEClearSky;                         !- Solar Model Indicator

OS:SizingPeriod:DesignDay,
  {9a2cfa20-6d5e-4537-b9a3-4a6c8df0b647}, !- Handle
  Climate Zone 3 Ann Clg .4% Condns WB=>MDB, !- Name
  25.5,                                   !- Maximum Dry-Bulb Temperature {C}
  7.4,                                    !- Daily Dry-Bulb Temperature Range {deltaC}
  19.8,                                   !- Humidity Indicating Conditions at Maximum Dry-Bulb
  101301,                                 !- Barometric Pressure {Pa}
  4.9,                                    !- Wind Speed {m/s}
  290,                                    !- Wind Direction {deg}
  0,                                      !- Sky Clearness
  0,                                      !- Rain Indicator
  0,                                      !- Snow Indicator
  21,                                     !- Day of Month
  8,                                      !- Month
  SummerDesignDay,                        !- Day Type
  0,                                      !- Daylight Saving Time Indicator
  Wetbulb,                                !- Humidity Indicating Type
  ,                                       !- Humidity Indicating Day Schedule Name
  DefaultMultipliers,                     !- Dry-Bulb Temperature Range Modifier Type
  ,                                       !- Dry-Bulb Temperature Range Modifier Schedule Name
  ASHRAETau,                              !- Solar Model Indicator
  ,                                       !- Beam Solar Day Schedule Name
  ,                                       !- Diffuse Solar Day Schedule Name
  0.367,                                  !- ASHRAE Taub {dimensionless}
  2.428;                                  !- ASHRAE Taud {dimensionless}

OS:SizingPeriod:DesignDay,
  {97a012c3-cf59-47e4-9557-e0b4d7a4a534}, !- Handle
  Climate Zone 3 Ann Clg .4% Condns DB=>MWB, !- Name
  27.7,                                   !- Maximum Dry-Bulb Temperature {C}
  7.4,                                    !- Daily Dry-Bulb Temperature Range {deltaC}
  18.3,                                   !- Humidity Indicating Conditions at Maximum Dry-Bulb
  101301,                                 !- Barometric Pressure {Pa}
  4.9,                                    !- Wind Speed {m/s}
  290,                                    !- Wind Direction {deg}
  0,                                      !- Sky Clearness
  0,                                      !- Rain Indicator
  0,                                      !- Snow Indicator
  21,                                     !- Day of Month
  8,                                      !- Month
  SummerDesignDay,                        !- Day Type
  0,                                      !- Daylight Saving Time Indicator
  Wetbulb,                                !- Humidity Indicating Type
  ,                                       !- Humidity Indicating Day Schedule Name
  DefaultMultipliers,                     !- Dry-Bulb Temperature Range Modifier Type
  ,                                       !- Dry-Bulb Temperature Range Modifier Schedule Name
  ASHRAETau,                              !- Solar Model Indicator
  ,                                       !- Beam Solar Day Schedule Name
  ,                                       !- Diffuse Solar Day Schedule Name
  0.367,                                  !- ASHRAE Taub {dimensionless}
  2.428;                                  !- ASHRAE Taud {dimensionless}

OS:ClimateZones,
  {df216033-0a48-4372-bfca-6f18ff87bfe4}, !- Handle
  ,                                       !- Active Institution
  ,                                       !- Active Year
  ,                                       !- Climate Zone Institution Name 1
  ,                                       !- Climate Zone Document Name 1
  ,                                       !- Climate Zone Document Year 1
  ,                                       !- Climate Zone Value 1
  CEC,                                    !- Climate Zone Institution Name 2
  California Climate Zone Descriptions,   !- Climate Zone Document Name 2
  1995,                                   !- Climate Zone Document Year 2
  CEC3;                                   !- Climate Zone Value 2

OS:SpaceType,
  {7fdfa637-b4d9-41e4-9050-313db53d5c84}, !- Handle
  Retail Back_Space - CEC Pre-1978,       !- Name
  ,                                       !- Default Construction Set Name
  {b7f491cf-a4e7-45c8-8cbd-b3884d668292}, !- Default Schedule Set Name
  ,                                       !- Group Rendering Name
  {15aad37c-ae31-473b-b1a3-6b56280acde4}, !- Design Specification Outdoor Air Object Name
  Retail,                                 !- Standards Building Type
  Back_Space;                             !- Standards Space Type

OS:SpaceType,
  {8d382607-1851-4fc1-beb3-04199a5cca93}, !- Handle
  Retail Entry - CEC Pre-1978,            !- Name
  ,                                       !- Default Construction Set Name
  {a9dac5f2-55d5-4d68-9cff-22eb8c26c151}, !- Default Schedule Set Name
  ,                                       !- Group Rendering Name
  {0ec931fc-b576-4061-b99f-6b9bac1e885e}, !- Design Specification Outdoor Air Object Name
  Retail,                                 !- Standards Building Type
  Entry;                                  !- Standards Space Type

OS:SpaceType,
  {28e812aa-edf8-4981-b912-bae71dbe3d34}, !- Handle
  Retail Point_of_Sale - CEC Pre-1978,    !- Name
  ,                                       !- Default Construction Set Name
  {c42423cb-81fc-48c8-940b-4c334dbf4155}, !- Default Schedule Set Name
  ,                                       !- Group Rendering Name
  {d434b0ee-cddd-4388-937c-efaceafd1dfc}, !- Design Specification Outdoor Air Object Name
  Retail,                                 !- Standards Building Type
  Point_of_Sale;                          !- Standards Space Type

OS:SpaceType,
  {0bb547bc-c4e5-4a9a-9847-9d952cb761a3}, !- Handle
  Retail Retail - CEC Pre-1978,           !- Name
  ,                                       !- Default Construction Set Name
  {3372efd2-e9e8-4df0-ad06-79cadc7ac821}, !- Default Schedule Set Name
  ,                                       !- Group Rendering Name
  {259d0d4e-886b-4d62-ab8c-5d692517d939}, !- Design Specification Outdoor Air Object Name
  Retail,                                 !- Standards Building Type
  Retail;                                 !- Standards Space Type

OS:Building,
  {598533c5-e4a6-4fbc-be74-d857640f5855}, !- Handle
  CEC Pre-1978|RetailStandalone,          !- Name
  ,                                       !- Building Sector Type
  ,                                       !- North Axis {deg}
  ,                                       !- Nominal Floor to Floor Height {m}
  ,                                       !- Space Type Name
  {1187a5e1-2541-4a15-b5a2-5ba2848e0c16}, !- Default Construction Set Name
  ,                                       !- Default Schedule Set Name
  ,                                       !- Standards Number of Stories
  ,                                       !- Standards Number of Above Ground Stories
  Retail;                                 !- Standards Building Type

OS:BuildingStory,
  {74a810b9-fa1d-4996-a275-caffc75cfb31}, !- Handle
  Story Ground,                           !- Name
  0,                                      !- Nominal Z Coordinate {m}
  6.096,                                  !- Nominal Floor to Floor Height {m}
  ,                                       !- Default Construction Set Name
  ,                                       !- Default Schedule Set Name
  ;                                       !- Group Rendering Name

OS:Space,
  {7e42e117-5af4-42bc-8dd4-ca41349055b8}, !- Handle
  Retail Retail A end_a - Story Ground,   !- Name
  {0bb547bc-c4e5-4a9a-9847-9d952cb761a3}, !- Space Type Name
  ,                                       !- Default Construction Set Name
  ,                                       !- Default Schedule Set Name
  -0,                                     !- Direction of Relative North {deg}
  -27.2995579507068,                      !- X Origin {m}
  -20.9996599620822,                      !- Y Origin {m}
  0,                                      !- Z Origin {m}
  {74a810b9-fa1d-4996-a275-caffc75cfb31}, !- Building Story Name
  {db9557c2-5baf-4675-85b6-63a82fb8d9f8}; !- Thermal Zone Name

OS:Surface,
  {5073b5f4-68ec-495c-8b43-b6e9755170a8}, !- Handle
  Surface 1,                              !- Name
  Floor,                                  !- Surface Type
  ,                                       !- Construction Name
  {7e42e117-5af4-42bc-8dd4-ca41349055b8}, !- Space Name
  Ground,                                 !- Outside Boundary Condition
  ,                                       !- Outside Boundary Condition Object
  NoSun,                                  !- Sun Exposure
  NoWind,                                 !- Wind Exposure
  ,                                       !- View Factor to Ground
  ,                                       !- Number of Vertices
  2.48689957516035e-014, -3.19744231092045e-014, 0, !- X,Y,Z Vertex 1 {m}
  2.48689957516035e-014, 4.57199999999997, 0, !- X,Y,Z Vertex 2 {m}
  4.57200000000002, 4.57199999999997, 0,  !- X,Y,Z Vertex 3 {m}
  4.57200000000002, -3.19744231092045e-014, 0; !- X,Y,Z Vertex 4 {m}

OS:Surface,
  {15fa152e-9510-4139-ac19-86ed1c2a18a3}, !- Handle
  Surface 2,                              !- Name
  Wall,                                   !- Surface Type
  ,                                       !- Construction Name
  {7e42e117-5af4-42bc-8dd4-ca41349055b8}, !- Space Name
  Outdoors,                               !- Outside Boundary Condition
  ,                                       !- Outside Boundary Condition Object
  SunExposed,                             !- Sun Exposure
  WindExposed,                            !- Wind Exposure
  ,                                       !- View Factor to Ground
  ,                                       !- Number of Vertices
  2.48689957516035e-014, 4.57199999999997, 6.096, !- X,Y,Z Vertex 1 {m}
  2.48689957516035e-014, 4.57199999999997, 0, !- X,Y,Z Vertex 2 {m}
  2.48689957516035e-014, -3.19744231092045e-014, 0, !- X,Y,Z Vertex 3 {m}
  2.48689957516035e-014, -3.19744231092045e-014, 6.096; !- X,Y,Z Vertex 4 {m}

OS:Surface,
  {1a75320e-84ce-4f87-811d-c6a6cc3e640e}, !- Handle
  Surface 3,                              !- Name
  Wall,                                   !- Surface Type
  ,                                       !- Construction Name
  {7e42e117-5af4-42bc-8dd4-ca41349055b8}, !- Space Name
  Surface,                                !- Outside Boundary Condition
  {5fee13b8-9296-4e36-b56b-c06fa32fdb7f}, !- Outside Boundary Condition Object
  NoSun,                                  !- Sun Exposure
  NoWind,                                 !- Wind Exposure
  ,                                       !- View Factor to Ground
  ,                                       !- Number of Vertices
  4.57200000000002, 4.57199999999997, 6.096, !- X,Y,Z Vertex 1 {m}
  4.57200000000002, 4.57199999999997, 0,  !- X,Y,Z Vertex 2 {m}
  2.48689957516035e-014, 4.57199999999997, 0, !- X,Y,Z Vertex 3 {m}
  2.48689957516035e-014, 4.57199999999997, 6.096; !- X,Y,Z Vertex 4 {m}

OS:Surface,
  {52085e78-00b5-4106-b196-699170dc2e60}, !- Handle
  Surface 4,                              !- Name
  Wall,                                   !- Surface Type
  ,                                       !- Construction Name
  {7e42e117-5af4-42bc-8dd4-ca41349055b8}, !- Space Name
  Surface,                                !- Outside Boundary Condition
  {832c1380-2b8c-4c41-b6bd-7c566e972b2e}, !- Outside Boundary Condition Object
  NoSun,                                  !- Sun Exposure
  NoWind,                                 !- Wind Exposure
  ,                                       !- View Factor to Ground
  ,                                       !- Number of Vertices
  4.57200000000002, -3.19744231092045e-014, 6.096, !- X,Y,Z Vertex 1 {m}
  4.57200000000002, -3.19744231092045e-014, 0, !- X,Y,Z Vertex 2 {m}
  4.57200000000002, 4.57199999999997, 0,  !- X,Y,Z Vertex 3 {m}
  4.57200000000002, 4.57199999999997, 6.096; !- X,Y,Z Vertex 4 {m}

OS:Surface,
  {2f0263f6-bcce-4f61-b0a6-737c80d199bc}, !- Handle
  Surface 5,                              !- Name
  Wall,                                   !- Surface Type
  ,                                       !- Construction Name
  {7e42e117-5af4-42bc-8dd4-ca41349055b8}, !- Space Name
  Outdoors,                               !- Outside Boundary Condition
  ,                                       !- Outside Boundary Condition Object
  SunExposed,                             !- Sun Exposure
  WindExposed,                            !- Wind Exposure
  ,                                       !- View Factor to Ground
  ,                                       !- Number of Vertices
  2.48689957516035e-014, -3.19744231092045e-014, 6.096, !- X,Y,Z Vertex 1 {m}
  2.48689957516035e-014, -3.19744231092045e-014, 0, !- X,Y,Z Vertex 2 {m}
  4.57200000000002, -3.19744231092045e-014, 0, !- X,Y,Z Vertex 3 {m}
  4.57200000000002, -3.19744231092045e-014, 6.096; !- X,Y,Z Vertex 4 {m}

OS:Surface,
  {a97924f1-c7dd-466b-94d4-fcd0f060841d}, !- Handle
  Surface 6,                              !- Name
  RoofCeiling,                            !- Surface Type
  ,                                       !- Construction Name
  {7e42e117-5af4-42bc-8dd4-ca41349055b8}, !- Space Name
  Outdoors,                               !- Outside Boundary Condition
  ,                                       !- Outside Boundary Condition Object
  SunExposed,                             !- Sun Exposure
  WindExposed,                            !- Wind Exposure
  ,                                       !- View Factor to Ground
  ,                                       !- Number of Vertices
  4.57200000000002, -3.19744231092045e-014, 6.096, !- X,Y,Z Vertex 1 {m}
  4.57200000000002, 4.57199999999997, 6.096, !- X,Y,Z Vertex 2 {m}
  2.48689957516035e-014, 4.57199999999997, 6.096, !- X,Y,Z Vertex 3 {m}
  2.48689957516035e-014, -3.19744231092045e-014, 6.096; !- X,Y,Z Vertex 4 {m}

OS:ThermalZone,
  {db9557c2-5baf-4675-85b6-63a82fb8d9f8}, !- Handle
  Zone Retail Retail A end_a - Story Ground, !- Name
  1,                                      !- Multiplier
  ,                                       !- Ceiling Height {m}
  ,                                       !- Volume {m3}
  ,                                       !- Floor Area {m2}
  ,                                       !- Zone Inside Convection Algorithm
  ,                                       !- Zone Outside Convection Algorithm
  ,                                       !- Zone Conditioning Equipment List Name
  {9d5ebcf7-5ae5-4b6f-9b98-98b98fa767df}, !- Zone Air Inlet Port List
  {d1e69b00-d701-4e1b-b30e-135078830a44}, !- Zone Air Exhaust Port List
  {98bbf23e-fdce-4bc7-8e11-e222608bdaa0}, !- Zone Air Node Name
  {a85b0078-cab2-437b-8605-307fd433bcc8}, !- Zone Return Air Node Name
  ,                                       !- Primary Daylighting Control Name
  ,                                       !- Fraction of Zone Controlled by Primary Daylighting Control
  ,                                       !- Secondary Daylighting Control Name
  ,                                       !- Fraction of Zone Controlled by Secondary Daylighting Control
  ,                                       !- Illuminance Map Name
  ,                                       !- Group Rendering Name
  {fbabcd83-a21a-4486-9a7a-e261e4bc1a3f}, !- Thermostat Name
  No;                                     !- Use Ideal Air Loads

OS:Node,
  {0181e764-8556-4ffc-a29d-1fd53ad30c43}, !- Handle
  Node 1,                                 !- Name
  {98bbf23e-fdce-4bc7-8e11-e222608bdaa0}, !- Inlet Port
  ;                                       !- Outlet Port

OS:Connection,
  {98bbf23e-fdce-4bc7-8e11-e222608bdaa0}, !- Handle
  {8ac32ef5-ff2f-4751-be34-cb5f607a09bd}, !- Name
  {db9557c2-5baf-4675-85b6-63a82fb8d9f8}, !- Source Object
  11,                                     !- Outlet Port
  {0181e764-8556-4ffc-a29d-1fd53ad30c43}, !- Target Object
  2;                                      !- Inlet Port

OS:PortList,
  {9d5ebcf7-5ae5-4b6f-9b98-98b98fa767df}, !- Handle
  Port List 1,                            !- Name
  {db9557c2-5baf-4675-85b6-63a82fb8d9f8}, !- HVAC Component
  {3bfe1a7f-821e-4b77-8353-97ce0f9059e7}; !- Port 1

OS:PortList,
  {d1e69b00-d701-4e1b-b30e-135078830a44}, !- Handle
  Port List 2,                            !- Name
  {db9557c2-5baf-4675-85b6-63a82fb8d9f8}; !- HVAC Component

OS:Sizing:Zone,
  {07824e63-0a8e-4946-8c2e-be1625432443}, !- Handle
  {db9557c2-5baf-4675-85b6-63a82fb8d9f8}, !- Zone or ZoneList Name
  SupplyAirTemperature,                   !- Zone Cooling Design Supply Air Temperature Input Method
  12.8,                                   !- Zone Cooling Design Supply Air Temperature {C}
  11.11,                                  !- Zone Cooling Design Supply Air Temperature Difference {deltaC}
  SupplyAirTemperature,                   !- Zone Heating Design Supply Air Temperature Input Method
  40,                                     !- Zone Heating Design Supply Air Temperature {C}
  11.11,                                  !- Zone Heating Design Supply Air Temperature Difference {deltaC}
  0.0085,                                 !- Zone Cooling Design Supply Air Humidity Ratio {kg-H2O/kg-air}
  0.008,                                  !- Zone Heating Design Supply Air Humidity Ratio {kg-H2O/kg-air}
  ,                                       !- Zone Heating Sizing Factor
  ,                                       !- Zone Cooling Sizing Factor
  DesignDay,                              !- Cooling Design Air Flow Method
  ,                                       !- Cooling Design Air Flow Rate {m3/s}
  ,                                       !- Cooling Minimum Air Flow per Zone Floor Area {m3/s-m2}
  ,                                       !- Cooling Minimum Air Flow {m3/s}
  ,                                       !- Cooling Minimum Air Flow Fraction
  DesignDay,                              !- Heating Design Air Flow Method
  ,                                       !- Heating Design Air Flow Rate {m3/s}
  ,                                       !- Heating Maximum Air Flow per Zone Floor Area {m3/s-m2}
  ,                                       !- Heating Maximum Air Flow {m3/s}
  ,                                       !- Heating Maximum Air Flow Fraction
  ,                                       !- Design Zone Air Distribution Effectiveness in Cooling Mode
  ,                                       !- Design Zone Air Distribution Effectiveness in Heating Mode
  No,                                     !- Account for Dedicated Outdoor Air System
  NeutralSupplyAir,                       !- Dedicated Outdoor Air System Control Strategy
  autosize,                               !- Dedicated Outdoor Air Low Setpoint Temperature for Design {C}
  autosize;                               !- Dedicated Outdoor Air High Setpoint Temperature for Design {C}

OS:ZoneHVAC:EquipmentList,
  {f3f17ba2-59d6-48f8-b968-c8922f213880}, !- Handle
  Zone HVAC Equipment List 1,             !- Name
  {db9557c2-5baf-4675-85b6-63a82fb8d9f8}, !- Thermal Zone
  {705260de-a8ff-4d0f-90aa-7e6f037f7995}, !- Zone Equipment 1
  1,                                      !- Zone Equipment Cooling Sequence 1
  1;                                      !- Zone Equipment Heating or No-Load Sequence 1

OS:Space,
  {4fe90ac8-6c84-4c46-b212-726566568e62}, !- Handle
  Retail Retail B end_a - Story Ground,   !- Name
  {0bb547bc-c4e5-4a9a-9847-9d952cb761a3}, !- Space Type Name
  ,                                       !- Default Construction Set Name
  ,                                       !- Default Schedule Set Name
  -0,                                     !- Direction of Relative North {deg}
  -27.2995579507068,                      !- X Origin {m}
  -16.4276599620822,                      !- Y Origin {m}
  0,                                      !- Z Origin {m}
  {74a810b9-fa1d-4996-a275-caffc75cfb31}, !- Building Story Name
  {e218561d-45c4-4a26-b05e-0a44a21a39b1}; !- Thermal Zone Name

OS:Surface,
  {18680ea4-20d0-4323-a1b2-21f0b493ed0f}, !- Handle
  Surface 7,                              !- Name
  Floor,                                  !- Surface Type
  ,                                       !- Construction Name
  {4fe90ac8-6c84-4c46-b212-726566568e62}, !- Space Name
  Ground,                                 !- Outside Boundary Condition
  ,                                       !- Outside Boundary Condition Object
  NoSun,                                  !- Sun Exposure
  NoWind,                                 !- Wind Exposure
  ,                                       !- View Factor to Ground
  ,                                       !- Number of Vertices
  2.48689957516035e-014, -2.8421709430404e-014, 0, !- X,Y,Z Vertex 1 {m}
  2.48689957516035e-014, 32.8553199241644, 0, !- X,Y,Z Vertex 2 {m}
  4.57200000000002, 32.8553199241644, 0,  !- X,Y,Z Vertex 3 {m}
  4.57200000000002, -2.8421709430404e-014, 0; !- X,Y,Z Vertex 4 {m}

OS:Surface,
  {50e9ff29-fa67-42f0-b8cc-6c68bf9cc679}, !- Handle
  Surface 8,                              !- Name
  Wall,                                   !- Surface Type
  ,                                       !- Construction Name
  {4fe90ac8-6c84-4c46-b212-726566568e62}, !- Space Name
  Outdoors,                               !- Outside Boundary Condition
  ,                                       !- Outside Boundary Condition Object
  SunExposed,                             !- Sun Exposure
  WindExposed,                            !- Wind Exposure
  ,                                       !- View Factor to Ground
  ,                                       !- Number of Vertices
  2.48689957516035e-014, 32.8553199241644, 6.096, !- X,Y,Z Vertex 1 {m}
  2.48689957516035e-014, 32.8553199241644, 0, !- X,Y,Z Vertex 2 {m}
  2.48689957516035e-014, -2.8421709430404e-014, 0, !- X,Y,Z Vertex 3 {m}
  2.48689957516035e-014, -2.8421709430404e-014, 6.096; !- X,Y,Z Vertex 4 {m}

OS:Surface,
  {1543007a-94ac-4875-a5cf-5b3ce8b7579d}, !- Handle
  Surface 9,                              !- Name
  Wall,                                   !- Surface Type
  ,                                       !- Construction Name
  {4fe90ac8-6c84-4c46-b212-726566568e62}, !- Space Name
  Surface,                                !- Outside Boundary Condition
  {9d437540-011d-420b-901c-426276a2cb26}, !- Outside Boundary Condition Object
  NoSun,                                  !- Sun Exposure
  NoWind,                                 !- Wind Exposure
  ,                                       !- View Factor to Ground
  ,                                       !- Number of Vertices
  4.57200000000002, 32.8553199241644, 6.096, !- X,Y,Z Vertex 1 {m}
  4.57200000000002, 32.8553199241644, 0,  !- X,Y,Z Vertex 2 {m}
  2.48689957516035e-014, 32.8553199241644, 0, !- X,Y,Z Vertex 3 {m}
  2.48689957516035e-014, 32.8553199241644, 6.096; !- X,Y,Z Vertex 4 {m}

OS:Surface,
  {907d7969-743d-4029-ade7-a6a7cc62f4aa}, !- Handle
  Surface 10,                             !- Name
  Wall,                                   !- Surface Type
  ,                                       !- Construction Name
  {4fe90ac8-6c84-4c46-b212-726566568e62}, !- Space Name
  Surface,                                !- Outside Boundary Condition
  {cdde9542-fc04-426c-8e23-b682da29aaad}, !- Outside Boundary Condition Object
  NoSun,                                  !- Sun Exposure
  NoWind,                                 !- Wind Exposure
  ,                                       !- View Factor to Ground
  ,                                       !- Number of Vertices
  4.57200000000002, -2.8421709430404e-014, 6.096, !- X,Y,Z Vertex 1 {m}