
OS:Version,
  {6af964b9-78a5-459c-8672-9737d4fe1b85}, !- Handle
  2.1.0;                                  !- Version Identifier

OS:Facility,
  {8c2408de-1833-4c5a-8c1e-08d93ec9b491}; !- Handle

OS:SimulationControl,
  {268efd7d-1905-40f1-8006-c9beacea7aad}, !- Handle
  ,                                       !- Do Zone Sizing Calculation
  ,                                       !- Do System Sizing Calculation
  ,                                       !- Do Plant Sizing Calculation
  Yes,                                    !- Run Simulation for Sizing Periods
  No;                                     !- Run Simulation for Weather File Run Periods

OS:Sizing:Parameters,
  {0ec175be-53c6-41a9-999d-c7a95cf91d29}, !- Handle
  1.25,                                   !- Heating Sizing Factor
  1.15;                                   !- Cooling Sizing Factor

OS:Timestep,
  {749c882a-ae70-483c-a550-2ad41ef3da8c}, !- Handle
  6;                                      !- Number of Timesteps per Hour

OS:ShadowCalculation,
  {a2eee0e7-604b-4597-becf-29b972a594cb}, !- Handle
  20,                                     !- Calculation Frequency
  15000;                                  !- Maximum Figures in Shadow Overlap Calculations

OS:HeatBalanceAlgorithm,
  {d92b4cb5-99b7-4232-877f-37821743368d}, !- Handle
  ConductionTransferFunction,             !- Algorithm
  200;                                    !- Surface Temperature Upper Limit {C}

OS:RunPeriod,
  {e38662e5-d742-450b-8411-70812086ea1c}, !- Handle
  Run Period 1,                           !- Name
  1,                                      !- Begin Month
  1,                                      !- Begin Day of Month
  12,                                     !- End Month
  31,                                     !- End Day of Month
  ,                                       !- Use Weather File Holidays and Special Days
  ,                                       !- Use Weather File Daylight Saving Period
  ,                                       !- Apply Weekend Holiday Rule
  ,                                       !- Use Weather File Rain Indicators
  ,                                       !- Use Weather File Snow Indicators
  ;                                       !- Number of Times Runperiod to be Repeated

OS:LifeCycleCost:Parameters,
  {91fe1e94-7818-4a84-a13d-ffba204a8e12}, !- Handle
  ,                                       !- Analysis Type
  ,                                       !- Discounting Convention
  ,                                       !- Inflation Approach
  ,                                       !- Real Discount Rate
  ,                                       !- Nominal Discount Rate
  ,                                       !- Inflation
  ,                                       !- Base Date Month
  ,                                       !- Base Date Year
  ,                                       !- Service Date Month
  ,                                       !- Service Date Year
  ;                                       !- Length of Study Period in Years

OS:WeatherFile,
  {503a07fa-59b0-462c-b67a-6c13bd7f46bd}, !- Handle
  Climate Zone 3,                         !- City
  CA,                                     !- State Province Region
  USA,                                    !- Country
  CTZRV2,                                 !- Data Source
  724930,                                 !- WMO Number
  37.7,                                   !- Latitude {deg}
  -122.2,                                 !- Longitude {deg}
  -8,                                     !- Time Zone {hr}
  2,                                      !- Elevation {m}
  file:///C:/Sites/bricr/weather/CZ03RV2.epw, !- Url
  ;                                       !- Checksum

OS:Site,
  {ccbed569-c1d0-484c-811e-0b68c2b15faa}, !- Handle
  Climate Zone 3_CA_USA,                  !- Name
  37.7,                                   !- Latitude {deg}
  -122.2,                                 !- Longitude {deg}
  -8,                                     !- Time Zone {hr}
  2,                                      !- Elevation {m}
  ;                                       !- Terrain

OS:Site:WaterMainsTemperature,
  {7bcb1f2f-1972-4107-8446-a93a1c32de6b}, !- Handle
  Correlation,                            !- Calculation Method
  ,                                       !- Temperature Schedule Name
  14.1416666666667,                       !- Annual Average Outdoor Air Temperature {C}
  7.8;                                    !- Maximum Difference In Monthly Average Outdoor Air Temperatures {deltaC}

OS:SizingPeriod:DesignDay,
  {744d4ef6-6713-413b-9b14-f204893f60e3}, !- Handle
  Climate Zone 3 Ann Htg 99.6% Condns DB, !- Name
  2.9,                                    !- Maximum Dry-Bulb Temperature {C}
  0,                                      !- Daily Dry-Bulb Temperature Range {deltaC}
  2.9,                                    !- Humidity Indicating Conditions at Maximum Dry-Bulb
  101301,                                 !- Barometric Pressure {Pa}
  2.2,                                    !- Wind Speed {m/s}
  50,                                     !- Wind Direction {deg}
  0,                                      !- Sky Clearness
  0,                                      !- Rain Indicator
  0,                                      !- Snow Indicator
  21,                                     !- Day of Month
  1,                                      !- Month
  WinterDesignDay,                        !- Day Type
  0,                                      !- Daylight Saving Time Indicator
  Wetbulb,                                !- Humidity Indicating Type
  ,                                       !- Humidity Indicating Day Schedule Name
  DefaultMultipliers,                     !- Dry-Bulb Temperature Range Modifier Type
  ,                                       !- Dry-Bulb Temperature Range Modifier Schedule Name
  ASHRAEClearSky;                         !- Solar Model Indicator

OS:SizingPeriod:DesignDay,
  {90c92812-4a1c-4f33-aa2f-c2bfd288da36}, !- Handle
  Climate Zone 3 Ann Clg .4% Condns WB=>MDB, !- Name
  25.5,                                   !- Maximum Dry-Bulb Temperature {C}
  7.4,                                    !- Daily Dry-Bulb Temperature Range {deltaC}
  19.8,                                   !- Humidity Indicating Conditions at Maximum Dry-Bulb
  101301,                                 !- Barometric Pressure {Pa}
  4.9,                                    !- Wind Speed {m/s}
  290,                                    !- Wind Direction {deg}
  0,                                      !- Sky Clearness
  0,                                      !- Rain Indicator
  0,                                      !- Snow Indicator
  21,                                     !- Day of Month
  8,                                      !- Month
  SummerDesignDay,                        !- Day Type
  0,                                      !- Daylight Saving Time Indicator
  Wetbulb,                                !- Humidity Indicating Type
  ,                                       !- Humidity Indicating Day Schedule Name
  DefaultMultipliers,                     !- Dry-Bulb Temperature Range Modifier Type
  ,                                       !- Dry-Bulb Temperature Range Modifier Schedule Name
  ASHRAETau,                              !- Solar Model Indicator
  ,                                       !- Beam Solar Day Schedule Name
  ,                                       !- Diffuse Solar Day Schedule Name
  0.367,                                  !- ASHRAE Taub {dimensionless}
  2.428;                                  !- ASHRAE Taud {dimensionless}

OS:SizingPeriod:DesignDay,
  {3de088c6-5f72-4a2e-9bf5-84006a13bc20}, !- Handle
  Climate Zone 3 Ann Clg .4% Condns DB=>MWB, !- Name
  27.7,                                   !- Maximum Dry-Bulb Temperature {C}
  7.4,                                    !- Daily Dry-Bulb Temperature Range {deltaC}
  18.3,                                   !- Humidity Indicating Conditions at Maximum Dry-Bulb
  101301,                                 !- Barometric Pressure {Pa}
  4.9,                                    !- Wind Speed {m/s}
  290,                                    !- Wind Direction {deg}
  0,                                      !- Sky Clearness
  0,                                      !- Rain Indicator
  0,                                      !- Snow Indicator
  21,                                     !- Day of Month
  8,                                      !- Month
  SummerDesignDay,                        !- Day Type
  0,                                      !- Daylight Saving Time Indicator
  Wetbulb,                                !- Humidity Indicating Type
  ,                                       !- Humidity Indicating Day Schedule Name
  DefaultMultipliers,                     !- Dry-Bulb Temperature Range Modifier Type
  ,                                       !- Dry-Bulb Temperature Range Modifier Schedule Name
  ASHRAETau,                              !- Solar Model Indicator
  ,                                       !- Beam Solar Day Schedule Name
  ,                                       !- Diffuse Solar Day Schedule Name
  0.367,                                  !- ASHRAE Taub {dimensionless}
  2.428;                                  !- ASHRAE Taud {dimensionless}

OS:ClimateZones,
  {1116ca50-69b3-44c1-9572-7d5d1a33bab2}, !- Handle
  ,                                       !- Active Institution
  ,                                       !- Active Year
  ,                                       !- Climate Zone Institution Name 1
  ,                                       !- Climate Zone Document Name 1
  ,                                       !- Climate Zone Document Year 1
  ,                                       !- Climate Zone Value 1
  CEC,                                    !- Climate Zone Institution Name 2
  California Climate Zone Descriptions,   !- Climate Zone Document Name 2
  1995,                                   !- Climate Zone Document Year 2
  CEC3;                                   !- Climate Zone Value 2

OS:SpaceType,
  {778a4613-bdda-491e-af3b-ad5d0d020165}, !- Handle
  Office WholeBuilding - Sm Office - CEC Pre-1978, !- Name
  ,                                       !- Default Construction Set Name
  {3228e51b-f1ef-4000-8ced-d4b8e9a5ba93}, !- Default Schedule Set Name
  ,                                       !- Group Rendering Name
  {0f64d18e-5e48-4dd2-ad92-cae7166847cd}, !- Design Specification Outdoor Air Object Name
  Office,                                 !- Standards Building Type
  WholeBuilding - Sm Office;              !- Standards Space Type

OS:Building,
  {b3a05f13-0994-421d-86e1-030b73c962d6}, !- Handle
  CEC Pre-1978|SmallOffice,               !- Name
  ,                                       !- Building Sector Type
  ,                                       !- North Axis {deg}
  ,                                       !- Nominal Floor to Floor Height {m}
  {778a4613-bdda-491e-af3b-ad5d0d020165}, !- Space Type Name
  {5181aa03-af62-4abb-b022-bc84288bc0e8}, !- Default Construction Set Name
  ,                                       !- Default Schedule Set Name
  ,                                       !- Standards Number of Stories
  ,                                       !- Standards Number of Above Ground Stories
  Office;                                 !- Standards Building Type

OS:BuildingStory,
  {3ed7906d-307a-4c60-adb2-2d53ca4d298f}, !- Handle
  Story Ground,                           !- Name
  0,                                      !- Nominal Z Coordinate {m}
  3.048,                                  !- Nominal Floor to Floor Height {m}
  ,                                       !- Default Construction Set Name
  ,                                       !- Default Schedule Set Name
  ;                                       !- Group Rendering Name

OS:Space,
  {0d0af113-a14c-499c-8d6e-6e8f3d01f21e}, !- Handle
  West Perimeter Space - Story Ground,    !- Name
  ,                                       !- Space Type Name
  ,                                       !- Default Construction Set Name
  ,                                       !- Default Schedule Set Name
  -0,                                     !- Direction of Relative North {deg}
  -13.8424174189337,                      !- X Origin {m}
  -9.22827827928915,                      !- Y Origin {m}
  0,                                      !- Z Origin {m}
  {3ed7906d-307a-4c60-adb2-2d53ca4d298f}, !- Building Story Name
  {d2ff7a94-9fb2-435e-8ad7-a1ff14a04b83}; !- Thermal Zone Name

OS:Surface,
  {38dd919f-14d0-433a-827d-59d21c489376}, !- Handle
  Surface 1,                              !- Name
  Floor,                                  !- Surface Type
  ,                                       !- Construction Name
  {0d0af113-a14c-499c-8d6e-6e8f3d01f21e}, !- Space Name
  Ground,                                 !- Outside Boundary Condition
  ,                                       !- Outside Boundary Condition Object
  NoSun,                                  !- Sun Exposure
  NoWind,                                 !- Wind Exposure
  ,                                       !- View Factor to Ground
  ,                                       !- Number of Vertices
  3.19744231092045e-014, 5.32907051820075e-015, 0, !- X,Y,Z Vertex 1 {m}
  3.19744231092045e-014, 18.4565565585783, 0, !- X,Y,Z Vertex 2 {m}
  4.572, 13.8845565585783, 0,             !- X,Y,Z Vertex 3 {m}
  4.572, 4.572, 0;                        !- X,Y,Z Vertex 4 {m}

OS:Surface,
  {b88d85db-41ee-4323-83b8-ae51dcdbd224}, !- Handle
  Surface 2,                              !- Name
  Wall,                                   !- Surface Type
  ,                                       !- Construction Name
  {0d0af113-a14c-499c-8d6e-6e8f3d01f21e}, !- Space Name
  Outdoors,                               !- Outside Boundary Condition
  ,                                       !- Outside Boundary Condition Object
  SunExposed,                             !- Sun Exposure
  WindExposed,                            !- Wind Exposure
  ,                                       !- View Factor to Ground
  ,                                       !- Number of Vertices
  3.19744231092045e-014, 18.4565565585783, 3.048, !- X,Y,Z Vertex 1 {m}
  3.19744231092045e-014, 18.4565565585783, 0, !- X,Y,Z Vertex 2 {m}
  3.19744231092045e-014, 5.32907051820075e-015, 0, !- X,Y,Z Vertex 3 {m}
  3.19744231092045e-014, 5.32907051820075e-015, 3.048; !- X,Y,Z Vertex 4 {m}

OS:Surface,
  {a813b64d-53e9-4f62-8c4b-b9f7cd29e82f}, !- Handle
  Surface 3,                              !- Name
  Wall,                                   !- Surface Type
  ,                                       !- Construction Name
  {0d0af113-a14c-499c-8d6e-6e8f3d01f21e}, !- Space Name
  Surface,                                !- Outside Boundary Condition
  {be72016d-fb48-44e6-be7b-5c7c8b43f819}, !- Outside Boundary Condition Object
  NoSun,                                  !- Sun Exposure
  NoWind,                                 !- Wind Exposure
  ,                                       !- View Factor to Ground
  ,                                       !- Number of Vertices
  4.572, 13.8845565585783, 3.048,         !- X,Y,Z Vertex 1 {m}
  4.572, 13.8845565585783, 0,             !- X,Y,Z Vertex 2 {m}
  3.19744231092045e-014, 18.4565565585783, 0, !- X,Y,Z Vertex 3 {m}
  3.19744231092045e-014, 18.4565565585783, 3.048; !- X,Y,Z Vertex 4 {m}

OS:Surface,
  {d492a1d3-b419-47de-9743-374395b88f57}, !- Handle
  Surface 4,                              !- Name
  Wall,                                   !- Surface Type
  ,                                       !- Construction Name
  {0d0af113-a14c-499c-8d6e-6e8f3d01f21e}, !- Space Name
  Surface,                                !- Outside Boundary Condition
  {573d3531-c238-4063-be2b-7d35c0f6f3fc}, !- Outside Boundary Condition Object
  NoSun,                                  !- Sun Exposure
  NoWind,                                 !- Wind Exposure
  ,                                       !- View Factor to Ground
  ,                                       !- Number of Vertices
  4.572, 4.572, 3.048,                    !- X,Y,Z Vertex 1 {m}
  4.572, 4.572, 0,                        !- X,Y,Z Vertex 2 {m}
  4.572, 13.8845565585783, 0,             !- X,Y,Z Vertex 3 {m}
  4.572, 13.8845565585783, 3.048;         !- X,Y,Z Vertex 4 {m}

OS:Surface,
  {e2da23dc-4132-4893-9def-07143c1a750b}, !- Handle
  Surface 5,                              !- Name
  Wall,                                   !- Surface Type
  ,                                       !- Construction Name
  {0d0af113-a14c-499c-8d6e-6e8f3d01f21e}, !- Space Name
  Surface,                                !- Outside Boundary Condition
  {8e1a7f41-eaca-42e7-9631-453e4679c77c}, !- Outside Boundary Condition Object
  NoSun,                                  !- Sun Exposure
  NoWind,                                 !- Wind Exposure
  ,                                       !- View Factor to Ground
  ,                                       !- Number of Vertices
  3.19744231092045e-014, 5.32907051820075e-015, 3.048, !- X,Y,Z Vertex 1 {m}
  3.19744231092045e-014, 5.32907051820075e-015, 0, !- X,Y,Z Vertex 2 {m}
  4.572, 4.572, 0,                        !- X,Y,Z Vertex 3 {m}
  4.572, 4.572, 3.048;                    !- X,Y,Z Vertex 4 {m}

OS:Surface,
  {dd92864e-94f0-4617-a6e2-dded5ba794e8}, !- Handle
  Surface 6,                              !- Name
  RoofCeiling,                            !- Surface Type
  ,                                       !- Construction Name
  {0d0af113-a14c-499c-8d6e-6e8f3d01f21e}, !- Space Name
  Outdoors,                               !- Outside Boundary Condition
  ,                                       !- Outside Boundary Condition Object
  SunExposed,                             !- Sun Exposure
  WindExposed,                            !- Wind Exposure
  ,                                       !- View Factor to Ground
  ,                                       !- Number of Vertices
  4.572, 4.572, 3.048,                    !- X,Y,Z Vertex 1 {m}
  4.572, 13.8845565585783, 3.048,         !- X,Y,Z Vertex 2 {m}
  3.19744231092045e-014, 18.4565565585783, 3.048, !- X,Y,Z Vertex 3 {m}
  3.19744231092045e-014, 5.32907051820075e-015, 3.048; !- X,Y,Z Vertex 4 {m}

OS:ThermalZone,
  {d2ff7a94-9fb2-435e-8ad7-a1ff14a04b83}, !- Handle
  Zone West Perimeter Space - Story Ground, !- Name
  1,                                      !- Multiplier
  ,                                       !- Ceiling Height {m}
  ,                                       !- Volume {m3}
  ,                                       !- Floor Area {m2}
  ,                                       !- Zone Inside Convection Algorithm
  ,                                       !- Zone Outside Convection Algorithm
  ,                                       !- Zone Conditioning Equipment List Name
  {6eef7d9f-f160-462d-870f-f1fcf6eeffed}, !- Zone Air Inlet Port List
  {92157a48-de47-409c-a70f-743341a6cc6f}, !- Zone Air Exhaust Port List
  {30b60d8e-4a72-49f4-b133-d5a2420b8acd}, !- Zone Air Node Name
  {c0c3f0cc-9956-40a2-96c8-71736bf379f4}, !- Zone Return Air Node Name
  ,                                       !- Primary Daylighting Control Name
  ,                                       !- Fraction of Zone Controlled by Primary Daylighting Control
  ,                                       !- Secondary Daylighting Control Name
  ,                                       !- Fraction of Zone Controlled by Secondary Daylighting Control
  ,                                       !- Illuminance Map Name
  ,                                       !- Group Rendering Name
  {e0611de1-ffc0-40a9-a166-eb1d3f18209d}, !- Thermostat Name
  No;                                     !- Use Ideal Air Loads

OS:Node,
  {a5ddff4e-0c5e-493b-ae2b-1114fdd1adca}, !- Handle
  Node 1,                                 !- Name
  {30b60d8e-4a72-49f4-b133-d5a2420b8acd}, !- Inlet Port
  ;                                       !- Outlet Port

OS:Connection,
  {30b60d8e-4a72-49f4-b133-d5a2420b8acd}, !- Handle
  {b84e87b5-b3a7-4cf1-b7b1-6561d58cd4e6}, !- Name
  {d2ff7a94-9fb2-435e-8ad7-a1ff14a04b83}, !- Source Object
  11,                                     !- Outlet Port
  {a5ddff4e-0c5e-493b-ae2b-1114fdd1adca}, !- Target Object
  2;                                      !- Inlet Port

OS:PortList,
  {6eef7d9f-f160-462d-870f-f1fcf6eeffed}, !- Handle
  Port List 1,                            !- Name
  {d2ff7a94-9fb2-435e-8ad7-a1ff14a04b83}, !- HVAC Component
  {5fca1133-c12c-4b8c-953f-c5f4d9dd7676}; !- Port 1

OS:PortList,
  {92157a48-de47-409c-a70f-743341a6cc6f}, !- Handle
  Port List 2,                            !- Name
  {d2ff7a94-9fb2-435e-8ad7-a1ff14a04b83}; !- HVAC Component

OS:Sizing:Zone,
  {ee43e394-402b-49cb-babc-0e8d717f83da}, !- Handle
  {d2ff7a94-9fb2-435e-8ad7-a1ff14a04b83}, !- Zone or ZoneList Name
  SupplyAirTemperature,                   !- Zone Cooling Design Supply Air Temperature Input Method
  12.8,                                   !- Zone Cooling Design Supply Air Temperature {C}
  11.11,                                  !- Zone Cooling Design Supply Air Temperature Difference {deltaC}
  SupplyAirTemperature,                   !- Zone Heating Design Supply Air Temperature Input Method
  40,                                     !- Zone Heating Design Supply Air Temperature {C}
  11.11,                                  !- Zone Heating Design Supply Air Temperature Difference {deltaC}
  0.0085,                                 !- Zone Cooling Design Supply Air Humidity Ratio {kg-H2O/kg-air}
  0.008,                                  !- Zone Heating Design Supply Air Humidity Ratio {kg-H2O/kg-air}
  ,                                       !- Zone Heating Sizing Factor
  ,                                       !- Zone Cooling Sizing Factor
  DesignDay,                              !- Cooling Design Air Flow Method
  ,                                       !- Cooling Design Air Flow Rate {m3/s}
  ,                                       !- Cooling Minimum Air Flow per Zone Floor Area {m3/s-m2}
  ,                                       !- Cooling Minimum Air Flow {m3/s}
  ,                                       !- Cooling Minimum Air Flow Fraction
  DesignDay,                              !- Heating Design Air Flow Method
  ,                                       !- Heating Design Air Flow Rate {m3/s}
  ,                                       !- Heating Maximum Air Flow per Zone Floor Area {m3/s-m2}
  ,                                       !- Heating Maximum Air Flow {m3/s}
  ,                                       !- Heating Maximum Air Flow Fraction
  ,                                       !- Design Zone Air Distribution Effectiveness in Cooling Mode
  ,                                       !- Design Zone Air Distribution Effectiveness in Heating Mode
  No,                                     !- Account for Dedicated Outdoor Air System
  NeutralSupplyAir,                       !- Dedicated Outdoor Air System Control Strategy
  autosize,                               !- Dedicated Outdoor Air Low Setpoint Temperature for Design {C}
  autosize;                               !- Dedicated Outdoor Air High Setpoint Temperature for Design {C}

OS:ZoneHVAC:EquipmentList,
  {6bd60d27-aeba-4d71-8122-e525a21a54c6}, !- Handle
  Zone HVAC Equipment List 1,             !- Name
  {d2ff7a94-9fb2-435e-8ad7-a1ff14a04b83}, !- Thermal Zone
  {86e31efd-3ebb-4022-a11e-69d33778e970}, !- Zone Equipment 1
  1,                                      !- Zone Equipment Cooling Sequence 1
  1;                                      !- Zone Equipment Heating or No-Load Sequence 1

OS:Space,
  {4e314af6-db85-4013-a178-41f61c7500ae}, !- Handle
  North Perimeter Space - Story Ground,   !- Name
  ,                                       !- Space Type Name
  ,                                       !- Default Construction Set Name
  ,                                       !- Default Schedule Set Name
  -0,                                     !- Direction of Relative North {deg}
  -13.8424174189337,                      !- X Origin {m}
  9.22827827928915,                       !- Y Origin {m}
  0,                                      !- Z Origin {m}
  {3ed7906d-307a-4c60-adb2-2d53ca4d298f}, !- Building Story Name
  {45eddf55-3eea-4542-8272-b2eb42cad5ee}; !- Thermal Zone Name

OS:Surface,
  {1ff2b820-cbd3-450b-97fb-fffde4921c86}, !- Handle
  Surface 7,                              !- Name
  Floor,                                  !- Surface Type
  ,                                       !- Construction Name
  {4e314af6-db85-4013-a178-41f61c7500ae}, !- Space Name
  Ground,                                 !- Outside Boundary Condition
  ,                                       !- Outside Boundary Condition Object
  NoSun,                                  !- Sun Exposure
  NoWind,                                 !- Wind Exposure
  ,                                       !- View Factor to Ground
  ,                                       !- Number of Vertices
  3.19744231092045e-014, -5.32907051820075e-015, 0, !- X,Y,Z Vertex 1 {m}
  27.6848348378674, -5.32907051820075e-015, 0, !- X,Y,Z Vertex 2 {m}
  23.1128348378675, -4.572, 0,            !- X,Y,Z Vertex 3 {m}
  4.572, -4.572, 0;                       !- X,Y,Z Vertex 4 {m}

OS:Surface,
  {4c43422b-6745-4d85-98e1-ec45805c6883}, !- Handle
  Surface 8,                              !- Name
  Wall,                                   !- Surface Type
  ,                                       !- Construction Name
  {4e314af6-db85-4013-a178-41f61c7500ae}, !- Space Name
  Outdoors,                               !- Outside Boundary Condition
  ,                                       !- Outside Boundary Condition Object
  SunExposed,                             !- Sun Exposure
  WindExposed,                            !- Wind Exposure
  ,                                       !- View Factor to Ground
  ,                                       !- Number of Vertices
  27.6848348378674, -5.32907051820075e-015, 3.048, !- X,Y,Z Vertex 1 {m}
  27.6848348378674, -5.32907051820075e-015, 0, !- X,Y,Z Vertex 2 {m}
  3.19744231092045e-014, -5.32907051820075e-015, 0, !- X,Y,Z Vertex 3 {m}
  3.19744231092045e-014, -5.32907051820075e-015, 3.048; !- X,Y,Z Vertex 4 {m}

OS:Surface,
  {6de129aa-faa3-475c-9cc1-2e606121cd9a}, !- Handle
  Surface 9,                              !- Name
  Wall,                                   !- Surface Type
  ,                                       !- Construction Name
  {4e314af6-db85-4013-a178-41f61c7500ae}, !- Space Name
  Surface,                                !- Outside Boundary Condition
  {d4a1f60f-9441-4a1f-95c5-e0b5ce37aaf1}, !- Outside Boundary Condition Object
  NoSun,                                  !- Sun Exposure
  NoWind,                                 !- Wind Exposure
  ,                                       !- View Factor to Ground
  ,                                       !- Number of Vertices
  23.1128348378675, -4.572, 3.048,        !- X,Y,Z Vertex 1 {m}
  23.1128348378675, -4.572, 0,            !- X,Y,Z Vertex 2 {m}
  27.6848348378674, -5.32907051820075e-015, 0, !- X,Y,Z Vertex 3 {m}
  27.6848348378674, -5.32907051820075e-015, 3.048; !- X,Y,Z Vertex 4 {m}

OS:Surface,
  {cae0a25b-f591-4a2e-8bbb-f3ff4fef4fab}, !- Handle
  Surface 10,                             !- Name
  Wall,                                   !- Surface Type
  ,                                       !- Construction Name
  {4e314af6-db85-4013-a178-41f61c7500ae}, !- Space Name
  Surface,                                !- Outside Boundary Condition
  {26025d60-1a8f-4060-8024-c77e949344a0}, !- Outside Boundary Condition Object
  NoSun,                                  !- Sun Exposure
  NoWind,                                 !- Wind Exposure
  ,                                       !- View Factor to Ground
  ,                                       !- Number of Vertices
  4.572, -4.572, 3.048,                   !- X,Y,Z Vertex 1 {m}
  4.572, -4.572, 0,                       !- X,Y,Z Vertex 2 {m}
  23.1128348378675, -4.572, 0,            !- X,Y,Z Vertex 3 {m}
  23.1128348378675, -4.572, 3.048;        !- X,Y,Z Vertex 4 {m}

OS:Surface,
  {be72016d-fb48-44e6-be7b-5c7c8b43f819}, !- Handle
  Surface 11,                             !- Name
  Wall,                                   !- Surface Type
  ,                                       !- Construction Name
  {4e314af6-db85-4013-a178-41f61c7500ae}, !- Space Name
  Surface,                                !- Outside Boundary Condition
  {a813b64d-53e9-4f62-8c4b-b9f7cd29e82f}, !- Outside Boundary Condition Object
  NoSun,                                  !- Sun Exposure
  NoWind,                                 !- Wind Exposure
  ,                                       !- View Factor to Ground
  ,                                       !- Number of Vertices
  3.19744231092045e-014, -5.32907051820075e-015, 3.048, !- X,Y,Z Vertex 1 {m}
  3.19744231092045e-014, -5.32907051820075e-015, 0, !- X,Y,Z Vertex 2 {m}
  4.572, -4.572, 0,                       !- X,Y,Z Vertex 3 {m}
  4.572, -4.572, 3.048;                   !- X,Y,Z Vertex 4 {m}

OS:Surface,
  {44fcc755-9262-424b-b059-7d0885b35c86}, !- Handle
  Surface 12,                             !- Name
  RoofCeiling,                            !- Surface Type
  ,                                       !- Construction Name
  {4e314af6-db85-4013-a178-41f61c7500ae}, !- Space Name
  Outdoors,                               !- Outside Boundary Condition
  ,                                       !- Outside Boundary Condition Object
  SunExposed,                             !- Sun Exposure