
OS:Version,
  {c10a591c-750c-42f6-be03-ad724effab41}, !- Handle
  2.1.0;                                  !- Version Identifier

OS:Facility,
  {115c938c-28d0-44c4-af01-0dae6aaadcd7}; !- Handle

OS:SimulationControl,
  {b0c48565-c06f-483a-8251-9500b9e78dea}, !- Handle
  ,                                       !- Do Zone Sizing Calculation
  ,                                       !- Do System Sizing Calculation
  ,                                       !- Do Plant Sizing Calculation
  No,                                     !- Run Simulation for Sizing Periods
  Yes;                                    !- Run Simulation for Weather File Run Periods

OS:Sizing:Parameters,
  {6692a16f-cbea-4d02-8638-feb47176e0e6}, !- Handle
  1.25,                                   !- Heating Sizing Factor
  1.15;                                   !- Cooling Sizing Factor

OS:Timestep,
  {16aabb4f-2c48-4354-b62a-ed757633340e}, !- Handle
  6;                                      !- Number of Timesteps per Hour

OS:ShadowCalculation,
  {6631b519-8737-4e58-9aa1-cc40f86ca71f}, !- Handle
  20,                                     !- Calculation Frequency
  15000;                                  !- Maximum Figures in Shadow Overlap Calculations

OS:HeatBalanceAlgorithm,
  {3064a932-3427-4112-9415-44fb18332199}, !- Handle
  ConductionTransferFunction,             !- Algorithm
  200;                                    !- Surface Temperature Upper Limit {C}

OS:RunPeriod,
  {e53aa51b-39a6-41b4-a8ed-dd52c9caa8be}, !- Handle
  Run Period 1,                           !- Name
  1,                                      !- Begin Month
  1,                                      !- Begin Day of Month
  12,                                     !- End Month
  31,                                     !- End Day of Month
  ,                                       !- Use Weather File Holidays and Special Days
  ,                                       !- Use Weather File Daylight Saving Period
  ,                                       !- Apply Weekend Holiday Rule
  ,                                       !- Use Weather File Rain Indicators
  ,                                       !- Use Weather File Snow Indicators
  ;                                       !- Number of Times Runperiod to be Repeated

OS:LifeCycleCost:Parameters,
  {ba85d932-f3fe-4809-995d-42bedc8aef20}, !- Handle
  ,                                       !- Analysis Type
  ,                                       !- Discounting Convention
  ,                                       !- Inflation Approach
  ,                                       !- Real Discount Rate
  ,                                       !- Nominal Discount Rate
  ,                                       !- Inflation
  ,                                       !- Base Date Month
  ,                                       !- Base Date Year
  ,                                       !- Service Date Month
  ,                                       !- Service Date Year
  ;                                       !- Length of Study Period in Years

OS:WeatherFile,
  {e9a4b937-984e-4d62-acaf-0e94c247f69d}, !- Handle
  Climate Zone 3,                         !- City
  CA,                                     !- State Province Region
  USA,                                    !- Country
  CTZRV2,                                 !- Data Source
  724930,                                 !- WMO Number
  37.7,                                   !- Latitude {deg}
  -122.2,                                 !- Longitude {deg}
  -8,                                     !- Time Zone {hr}
  2,                                      !- Elevation {m}
  file:///C:/Sites/bricr/weather/CZ03RV2.epw, !- Url
  ;                                       !- Checksum

OS:Site,
  {f2d022cb-71b6-4671-aeba-d8d682a912e9}, !- Handle
  Climate Zone 3_CA_USA,                  !- Name
  37.7,                                   !- Latitude {deg}
  -122.2,                                 !- Longitude {deg}
  -8,                                     !- Time Zone {hr}
  2,                                      !- Elevation {m}
  ;                                       !- Terrain

OS:Site:WaterMainsTemperature,
  {828db041-7025-4fd7-a52f-55eb5683d861}, !- Handle
  Correlation,                            !- Calculation Method
  ,                                       !- Temperature Schedule Name
  14.1416666666667,                       !- Annual Average Outdoor Air Temperature {C}
  7.8;                                    !- Maximum Difference In Monthly Average Outdoor Air Temperatures {deltaC}

OS:SizingPeriod:DesignDay,
  {2f58c090-bbca-4deb-b6da-087bda011420}, !- Handle
  Climate Zone 3 Ann Clg .4% Condns WB=>MDB, !- Name
  25.5,                                   !- Maximum Dry-Bulb Temperature {C}
  7.4,                                    !- Daily Dry-Bulb Temperature Range {deltaC}
  19.8,                                   !- Humidity Indicating Conditions at Maximum Dry-Bulb
  101301,                                 !- Barometric Pressure {Pa}
  4.9,                                    !- Wind Speed {m/s}
  290,                                    !- Wind Direction {deg}
  0,                                      !- Sky Clearness
  0,                                      !- Rain Indicator
  0,                                      !- Snow Indicator
  21,                                     !- Day of Month
  8,                                      !- Month
  SummerDesignDay,                        !- Day Type
  0,                                      !- Daylight Saving Time Indicator
  Wetbulb,                                !- Humidity Indicating Type
  ,                                       !- Humidity Indicating Day Schedule Name
  DefaultMultipliers,                     !- Dry-Bulb Temperature Range Modifier Type
  ,                                       !- Dry-Bulb Temperature Range Modifier Schedule Name
  ASHRAETau,                              !- Solar Model Indicator
  ,                                       !- Beam Solar Day Schedule Name
  ,                                       !- Diffuse Solar Day Schedule Name
  0.367,                                  !- ASHRAE Taub {dimensionless}
  2.428;                                  !- ASHRAE Taud {dimensionless}

OS:SizingPeriod:DesignDay,
  {0dcdb7e1-a888-4831-a354-87d1378de945}, !- Handle
  Climate Zone 3 Ann Htg 99.6% Condns DB, !- Name
  2.9,                                    !- Maximum Dry-Bulb Temperature {C}
  0,                                      !- Daily Dry-Bulb Temperature Range {deltaC}
  2.9,                                    !- Humidity Indicating Conditions at Maximum Dry-Bulb
  101301,                                 !- Barometric Pressure {Pa}
  2.2,                                    !- Wind Speed {m/s}
  50,                                     !- Wind Direction {deg}
  0,                                      !- Sky Clearness
  0,                                      !- Rain Indicator
  0,                                      !- Snow Indicator
  21,                                     !- Day of Month
  1,                                      !- Month
  WinterDesignDay,                        !- Day Type
  0,                                      !- Daylight Saving Time Indicator
  Wetbulb,                                !- Humidity Indicating Type
  ,                                       !- Humidity Indicating Day Schedule Name
  DefaultMultipliers,                     !- Dry-Bulb Temperature Range Modifier Type
  ,                                       !- Dry-Bulb Temperature Range Modifier Schedule Name
  ASHRAEClearSky;                         !- Solar Model Indicator

OS:SizingPeriod:DesignDay,
  {cb2118c5-fd3f-494b-b096-2086d7ab9b58}, !- Handle
  Climate Zone 3 Ann Clg .4% Condns DB=>MWB, !- Name
  27.7,                                   !- Maximum Dry-Bulb Temperature {C}
  7.4,                                    !- Daily Dry-Bulb Temperature Range {deltaC}
  18.3,                                   !- Humidity Indicating Conditions at Maximum Dry-Bulb
  101301,                                 !- Barometric Pressure {Pa}
  4.9,                                    !- Wind Speed {m/s}
  290,                                    !- Wind Direction {deg}
  0,                                      !- Sky Clearness
  0,                                      !- Rain Indicator
  0,                                      !- Snow Indicator
  21,                                     !- Day of Month
  8,                                      !- Month
  SummerDesignDay,                        !- Day Type
  0,                                      !- Daylight Saving Time Indicator
  Wetbulb,                                !- Humidity Indicating Type
  ,                                       !- Humidity Indicating Day Schedule Name
  DefaultMultipliers,                     !- Dry-Bulb Temperature Range Modifier Type
  ,                                       !- Dry-Bulb Temperature Range Modifier Schedule Name
  ASHRAETau,                              !- Solar Model Indicator
  ,                                       !- Beam Solar Day Schedule Name
  ,                                       !- Diffuse Solar Day Schedule Name
  0.367,                                  !- ASHRAE Taub {dimensionless}
  2.428;                                  !- ASHRAE Taud {dimensionless}

OS:ClimateZones,
  {85b64039-f1e8-4f84-a0e0-84843b65ac5e}, !- Handle
  ,                                       !- Active Institution
  ,                                       !- Active Year
  ,                                       !- Climate Zone Institution Name 1
  ,                                       !- Climate Zone Document Name 1
  ,                                       !- Climate Zone Document Year 1
  ,                                       !- Climate Zone Value 1
  CEC,                                    !- Climate Zone Institution Name 2
  California Climate Zone Descriptions,   !- Climate Zone Document Name 2
  1995,                                   !- Climate Zone Document Year 2
  CEC3;                                   !- Climate Zone Value 2

OS:SpaceType,
  {2c92abe1-c276-4dac-8ed2-8aaacbf24799}, !- Handle
  Office WholeBuilding - Md Office - CEC Pre-1978, !- Name
  ,                                       !- Default Construction Set Name
  {02c1e947-6e97-420b-b093-5760d5e4d531}, !- Default Schedule Set Name
  ,                                       !- Group Rendering Name
  {0a086403-d270-407e-8708-dafc279d24f8}, !- Design Specification Outdoor Air Object Name
  Office,                                 !- Standards Building Type
  WholeBuilding - Md Office;              !- Standards Space Type

OS:Building,
  {61c88179-8a2a-4231-a2e7-da9d86f493b0}, !- Handle
  CEC Pre-1978|MediumOffice,              !- Name
  ,                                       !- Building Sector Type
  ,                                       !- North Axis {deg}
  ,                                       !- Nominal Floor to Floor Height {m}
  {2c92abe1-c276-4dac-8ed2-8aaacbf24799}, !- Space Type Name
  {283238ba-0a3a-4167-8dab-b063ff81a4f9}, !- Default Construction Set Name
  ,                                       !- Default Schedule Set Name
  ,                                       !- Standards Number of Stories
  ,                                       !- Standards Number of Above Ground Stories
  Office;                                 !- Standards Building Type

OS:BuildingStory,
  {6f602415-bb0a-4a86-b334-22315e065910}, !- Handle
  Story Ground,                           !- Name
  0,                                      !- Nominal Z Coordinate {m}
  3.9624,                                 !- Nominal Floor to Floor Height {m}
  ,                                       !- Default Construction Set Name
  ,                                       !- Default Schedule Set Name
  ;                                       !- Group Rendering Name

OS:Space,
  {a1da77e7-a372-40ec-a3e0-667bd37cd1f1}, !- Handle
  West Perimeter Space - Story Ground,    !- Name
  ,                                       !- Space Type Name
  ,                                       !- Default Construction Set Name
  ,                                       !- Default Schedule Set Name
  -0,                                     !- Direction of Relative North {deg}
  -24.9508170415319,                      !- X Origin {m}
  -16.633878027688,                       !- Y Origin {m}
  0,                                      !- Z Origin {m}
  {6f602415-bb0a-4a86-b334-22315e065910}, !- Building Story Name
  {7a866ad9-ffe0-4051-8e36-9a52e5177fe3}; !- Thermal Zone Name

OS:Surface,
  {31a2af36-3f82-431e-8027-11fe1e3f1ed6}, !- Handle
  Surface 1,                              !- Name
  Floor,                                  !- Surface Type
  ,                                       !- Construction Name
  {a1da77e7-a372-40ec-a3e0-667bd37cd1f1}, !- Space Name
  Ground,                                 !- Outside Boundary Condition
  ,                                       !- Outside Boundary Condition Object
  NoSun,                                  !- Sun Exposure
  NoWind,                                 !- Wind Exposure
  ,                                       !- View Factor to Ground
  ,                                       !- Number of Vertices
  2.8421709430404e-014, -4.61852778244065e-014, 0, !- X,Y,Z Vertex 1 {m}
  2.8421709430404e-014, 33.267756055376, 0, !- X,Y,Z Vertex 2 {m}
  4.57200000000003, 28.695756055376, 0,   !- X,Y,Z Vertex 3 {m}
  4.57200000000003, 4.57199999999995, 0;  !- X,Y,Z Vertex 4 {m}

OS:Surface,
  {b410a615-439e-46c9-9f8c-bb95ae23289d}, !- Handle
  Surface 2,                              !- Name
  Wall,                                   !- Surface Type
  ,                                       !- Construction Name
  {a1da77e7-a372-40ec-a3e0-667bd37cd1f1}, !- Space Name
  Outdoors,                               !- Outside Boundary Condition
  ,                                       !- Outside Boundary Condition Object
  SunExposed,                             !- Sun Exposure
  WindExposed,                            !- Wind Exposure
  ,                                       !- View Factor to Ground
  ,                                       !- Number of Vertices
  2.8421709430404e-014, 33.267756055376, 3.9624, !- X,Y,Z Vertex 1 {m}
  2.8421709430404e-014, 33.267756055376, 0, !- X,Y,Z Vertex 2 {m}
  2.8421709430404e-014, -4.61852778244065e-014, 0, !- X,Y,Z Vertex 3 {m}
  2.8421709430404e-014, -4.61852778244065e-014, 3.9624; !- X,Y,Z Vertex 4 {m}

OS:Surface,
  {e643ca7f-468e-44ac-9fb2-759b9a80ee9a}, !- Handle
  Surface 3,                              !- Name
  Wall,                                   !- Surface Type
  ,                                       !- Construction Name
  {a1da77e7-a372-40ec-a3e0-667bd37cd1f1}, !- Space Name
  Surface,                                !- Outside Boundary Condition
  {e57a989b-52e7-4b15-ab09-3ce47d2b2645}, !- Outside Boundary Condition Object
  NoSun,                                  !- Sun Exposure
  NoWind,                                 !- Wind Exposure
  ,                                       !- View Factor to Ground
  ,                                       !- Number of Vertices
  4.57200000000003, 28.695756055376, 3.9624, !- X,Y,Z Vertex 1 {m}
  4.57200000000003, 28.695756055376, 0,   !- X,Y,Z Vertex 2 {m}
  2.8421709430404e-014, 33.267756055376, 0, !- X,Y,Z Vertex 3 {m}
  2.8421709430404e-014, 33.267756055376, 3.9624; !- X,Y,Z Vertex 4 {m}

OS:Surface,
  {389f383e-6498-48bc-acc4-2987d5a8c4d8}, !- Handle
  Surface 4,                              !- Name
  Wall,                                   !- Surface Type
  ,                                       !- Construction Name
  {a1da77e7-a372-40ec-a3e0-667bd37cd1f1}, !- Space Name
  Surface,                                !- Outside Boundary Condition
  {8b078e79-f2e5-41b6-9b81-6178616c2f2c}, !- Outside Boundary Condition Object
  NoSun,                                  !- Sun Exposure
  NoWind,                                 !- Wind Exposure
  ,                                       !- View Factor to Ground
  ,                                       !- Number of Vertices
  4.57200000000003, 4.57199999999995, 3.9624, !- X,Y,Z Vertex 1 {m}
  4.57200000000003, 4.57199999999995, 0,  !- X,Y,Z Vertex 2 {m}
  4.57200000000003, 28.695756055376, 0,   !- X,Y,Z Vertex 3 {m}
  4.57200000000003, 28.695756055376, 3.9624; !- X,Y,Z Vertex 4 {m}

OS:Surface,
  {30626d0c-35b0-4cbd-aef7-8e3b4f6bc440}, !- Handle
  Surface 5,                              !- Name
  Wall,                                   !- Surface Type
  ,                                       !- Construction Name
  {a1da77e7-a372-40ec-a3e0-667bd37cd1f1}, !- Space Name
  Surface,                                !- Outside Boundary Condition
  {900f4620-4a66-469a-8ec9-5491beacb049}, !- Outside Boundary Condition Object
  NoSun,                                  !- Sun Exposure
  NoWind,                                 !- Wind Exposure
  ,                                       !- View Factor to Ground
  ,                                       !- Number of Vertices
  2.8421709430404e-014, -4.61852778244065e-014, 3.9624, !- X,Y,Z Vertex 1 {m}
  2.8421709430404e-014, -4.61852778244065e-014, 0, !- X,Y,Z Vertex 2 {m}
  4.57200000000003, 4.57199999999995, 0,  !- X,Y,Z Vertex 3 {m}
  4.57200000000003, 4.57199999999995, 3.9624; !- X,Y,Z Vertex 4 {m}

OS:Surface,
  {13c18e53-b445-41c3-b388-a81ac8232e05}, !- Handle
  Surface 6,                              !- Name
  RoofCeiling,                            !- Surface Type
  ,                                       !- Construction Name
  {a1da77e7-a372-40ec-a3e0-667bd37cd1f1}, !- Space Name
  Surface,                                !- Outside Boundary Condition
  {74d76165-bd81-44fd-9652-0038300d95c9}, !- Outside Boundary Condition Object
  NoSun,                                  !- Sun Exposure
  NoWind,                                 !- Wind Exposure
  ,                                       !- View Factor to Ground
  ,                                       !- Number of Vertices
  4.57200000000003, 4.57199999999995, 3.9624, !- X,Y,Z Vertex 1 {m}
  4.57200000000003, 28.695756055376, 3.9624, !- X,Y,Z Vertex 2 {m}
  2.8421709430404e-014, 33.267756055376, 3.9624, !- X,Y,Z Vertex 3 {m}
  2.8421709430404e-014, -4.61852778244065e-014, 3.9624; !- X,Y,Z Vertex 4 {m}

OS:ThermalZone,
  {7a866ad9-ffe0-4051-8e36-9a52e5177fe3}, !- Handle
  Zone West Perimeter Space - Story Ground, !- Name
  1,                                      !- Multiplier
  ,                                       !- Ceiling Height {m}
  ,                                       !- Volume {m3}
  ,                                       !- Floor Area {m2}
  ,                                       !- Zone Inside Convection Algorithm
  ,                                       !- Zone Outside Convection Algorithm
  ,                                       !- Zone Conditioning Equipment List Name
  {ee5341d1-b5b7-4b9b-a81c-8a52609678d7}, !- Zone Air Inlet Port List
  {863db9e1-8c1d-4665-a0a9-aa24ea4e558e}, !- Zone Air Exhaust Port List
  {0d69f665-3b6c-43b3-b449-d515f285d32a}, !- Zone Air Node Name
  {57ed3f09-ae1a-4f5c-b0e7-9862889d7e04}, !- Zone Return Air Node Name
  {f561d500-04d1-46fd-bfd2-fc23d5a31238}, !- Primary Daylighting Control Name
  1,                                      !- Fraction of Zone Controlled by Primary Daylighting Control
  ,                                       !- Secondary Daylighting Control Name
  ,                                       !- Fraction of Zone Controlled by Secondary Daylighting Control
  ,                                       !- Illuminance Map Name
  ,                                       !- Group Rendering Name
  {dd1ad35d-7125-4580-b456-2516a1fae29f}, !- Thermostat Name
  No;                                     !- Use Ideal Air Loads

OS:Node,
  {4a5e4de2-db90-429f-ac62-5d258a062580}, !- Handle
  Node 1,                                 !- Name
  {0d69f665-3b6c-43b3-b449-d515f285d32a}, !- Inlet Port
  ;                                       !- Outlet Port

OS:Connection,
  {0d69f665-3b6c-43b3-b449-d515f285d32a}, !- Handle
  {f4da9d05-51a5-4e6e-988b-4d4433515247}, !- Name
  {7a866ad9-ffe0-4051-8e36-9a52e5177fe3}, !- Source Object
  11,                                     !- Outlet Port
  {4a5e4de2-db90-429f-ac62-5d258a062580}, !- Target Object
  2;                                      !- Inlet Port

OS:PortList,
  {ee5341d1-b5b7-4b9b-a81c-8a52609678d7}, !- Handle
  Port List 1,                            !- Name
  {7a866ad9-ffe0-4051-8e36-9a52e5177fe3}, !- HVAC Component
  {bf2e7777-f309-490f-b9f0-432bea888291}; !- Port 1

OS:PortList,
  {863db9e1-8c1d-4665-a0a9-aa24ea4e558e}, !- Handle
  Port List 2,                            !- Name
  {7a866ad9-ffe0-4051-8e36-9a52e5177fe3}; !- HVAC Component

OS:Sizing:Zone,
  {1544433d-6588-493b-b898-f79647552f9d}, !- Handle
  {7a866ad9-ffe0-4051-8e36-9a52e5177fe3}, !- Zone or ZoneList Name
  SupplyAirTemperature,                   !- Zone Cooling Design Supply Air Temperature Input Method
  12.7777777777778,                       !- Zone Cooling Design Supply Air Temperature {C}
  11.11,                                  !- Zone Cooling Design Supply Air Temperature Difference {deltaC}
  SupplyAirTemperature,                   !- Zone Heating Design Supply Air Temperature Input Method
  50.0000000000001,                       !- Zone Heating Design Supply Air Temperature {C}
  11.11,                                  !- Zone Heating Design Supply Air Temperature Difference {deltaC}
  0.0085,                                 !- Zone Cooling Design Supply Air Humidity Ratio {kg-H2O/kg-air}
  0.008,                                  !- Zone Heating Design Supply Air Humidity Ratio {kg-H2O/kg-air}
  ,                                       !- Zone Heating Sizing Factor
  ,                                       !- Zone Cooling Sizing Factor
  DesignDay,                              !- Cooling Design Air Flow Method
  ,                                       !- Cooling Design Air Flow Rate {m3/s}
  ,                                       !- Cooling Minimum Air Flow per Zone Floor Area {m3/s-m2}
  ,                                       !- Cooling Minimum Air Flow {m3/s}
  ,                                       !- Cooling Minimum Air Flow Fraction
  DesignDay,                              !- Heating Design Air Flow Method
  ,                                       !- Heating Design Air Flow Rate {m3/s}
  ,                                       !- Heating Maximum Air Flow per Zone Floor Area {m3/s-m2}
  ,                                       !- Heating Maximum Air Flow {m3/s}
  ,                                       !- Heating Maximum Air Flow Fraction
  ,                                       !- Design Zone Air Distribution Effectiveness in Cooling Mode
  ,                                       !- Design Zone Air Distribution Effectiveness in Heating Mode
  No,                                     !- Account for Dedicated Outdoor Air System
  NeutralSupplyAir,                       !- Dedicated Outdoor Air System Control Strategy
  autosize,                               !- Dedicated Outdoor Air Low Setpoint Temperature for Design {C}
  autosize;                               !- Dedicated Outdoor Air High Setpoint Temperature for Design {C}

OS:ZoneHVAC:EquipmentList,
  {75e8a430-bb1e-47da-ae80-b437d513a260}, !- Handle
  Zone HVAC Equipment List 1,             !- Name
  {7a866ad9-ffe0-4051-8e36-9a52e5177fe3}, !- Thermal Zone
  {68bc10b6-9ff1-4c86-935d-e7bba37bb573}, !- Zone Equipment 1
  1,                                      !- Zone Equipment Cooling Sequence 1
  1;                                      !- Zone Equipment Heating or No-Load Sequence 1

OS:Space,
  {03951b6d-fd64-4688-8471-ce7d1c3ffaba}, !- Handle
  North Perimeter Space - Story Ground,   !- Name
  ,                                       !- Space Type Name
  ,                                       !- Default Construction Set Name
  ,                                       !- Default Schedule Set Name
  -0,                                     !- Direction of Relative North {deg}
  -24.9508170415319,                      !- X Origin {m}
  16.633878027688,                        !- Y Origin {m}
  0,                                      !- Z Origin {m}
  {6f602415-bb0a-4a86-b334-22315e065910}, !- Building Story Name
  {9bf8a25d-661b-47f6-8d19-cebb0913a9e4}; !- Thermal Zone Name

OS:Surface,
  {3045819f-a602-427c-ab14-0be18888d0fc}, !- Handle
  Surface 7,                              !- Name
  Floor,                                  !- Surface Type
  ,                                       !- Construction Name
  {03951b6d-fd64-4688-8471-ce7d1c3ffaba}, !- Space Name
  Ground,                                 !- Outside Boundary Condition
  ,                                       !- Outside Boundary Condition Object
  NoSun,                                  !- Sun Exposure
  NoWind,                                 !- Wind Exposure
  ,                                       !- View Factor to Ground
  ,                                       !- Number of Vertices
  2.8421709430404e-014, 4.61852778244065e-014, 0, !- X,Y,Z Vertex 1 {m}
  49.9016340830638, 4.61852778244065e-014, 0, !- X,Y,Z Vertex 2 {m}
  45.3296340830638, -4.57199999999995, 0, !- X,Y,Z Vertex 3 {m}
  4.57200000000003, -4.57199999999995, 0; !- X,Y,Z Vertex 4 {m}

OS:Surface,
  {82abb904-182c-4983-8394-55026581a9d9}, !- Handle
  Surface 8,                              !- Name
  Wall,                                   !- Surface Type
  ,                                       !- Construction Name
  {03951b6d-fd64-4688-8471-ce7d1c3ffaba}, !- Space Name
  Outdoors,                               !- Outside Boundary Condition
  ,                                       !- Outside Boundary Condition Object
  SunExposed,                             !- Sun Exposure
  WindExposed,                            !- Wind Exposure
  ,                                       !- View Factor to Ground
  ,                                       !- Number of Vertices
  49.9016340830638, 4.61852778244065e-014, 3.9624, !- X,Y,Z Vertex 1 {m}
  49.9016340830638, 4.61852778244065e-014, 0, !- X,Y,Z Vertex 2 {m}
  2.8421709430404e-014, 4.61852778244065e-014, 0, !- X,Y,Z Vertex 3 {m}
  2.8421709430404e-014, 4.61852778244065e-014, 3.9624; !- X,Y,Z Vertex 4 {m}

OS:Surface,
  {9fa394e8-28f1-4ff8-b830-5feafbbaac78}, !- Handle
  Surface 9,                              !- Name
  Wall,                                   !- Surface Type
  ,                                       !- Construction Name
  {03951b6d-fd64-4688-8471-ce7d1c3ffaba}, !- Space Name
  Surface,                                !- Outside Boundary Condition
  {f4927c67-e458-4e63-875d-ee9271e25bc8}, !- Outside Boundary Condition Object
  NoSun,                                  !- Sun Exposure
  NoWind,                                 !- Wind Exposure
  ,                                       !- View Factor to Ground
  ,                                       !- Number of Vertices
  45.3296340830638, -4.57199999999995, 3.9624, !- X,Y,Z Vertex 1 {m}
  45.3296340830638, -4.57199999999995, 0, !- X,Y,Z Vertex 2 {m}
  49.9016340830638, 4.61852778244065e-014, 0, !- X,Y,Z Vertex 3 {m}
  49.9016340830638, 4.61852778244065e-014, 3.9624; !- X,Y,Z Vertex 4 {m}

OS:Surface,
  {7fd83947-1852-418d-b559-852b02cc8c21}, !- Handle
  Surface 10,                             !- Name
  Wall,                                   !- Surface Type
  ,                                       !- Construction Name
  {03951b6d-fd64-4688-8471-ce7d1c3ffaba}, !- Space Name
  Surface,                                !- Outside Boundary Condition
  {5a632e30-9503-489d-a158-463858ef253c}, !- Outside Boundary Condition Object
  NoSun,                                  !- Sun Exposure
  NoWind,                                 !- Wind Exposure
  ,                                       !- View Factor to Ground
  ,                                       !- Number of Vertices
  4.57200000000003, -4.57199999999995, 3.9624, !- X,Y,Z Vertex 1 {m}
  4.57200000000003, -4.57199999999995, 0, !- X,Y,Z Vertex 2 {m}
  45.3296340830638, -4.57199999999995, 0, !- X,Y,Z Vertex 3 {m}
  45.3296340830638, -4.57199999999995, 3.9624; !- X,Y,Z Vertex 4 {m}

OS:Surface,
  {e57a989b-52e7-4b15-ab09-3ce47d2b2645}, !- Handle
  Surface 11,                             !- Name
  Wall,                                   !- Surface Type
  ,                                       !- Construction Name
  {03951b6d-fd64-4688-8471-ce7d1c3ffaba}, !- Space Name
  Surface,                                !- Outside Boundary Condition
  {e643ca7f-468e-44ac-9fb2-759b9a80ee9a}, !- Outside Boundary Condition Object
  NoSun,                                  !- Sun Exposure
  NoWind,                                 !- Wind Exposure
  ,                                       !- View Factor to Ground
  ,                                       !- Number of Vertices
  2.8421709430404e-014, 4.61852778244065e-014, 3.9624, !- X,Y,Z Vertex 1 {m}
  2.8421709430404e-014, 4.61852778244065e-014, 0, !- X,Y,Z Vertex 2 {m}
  4.57200000000003, -4.57199999999995, 0, !- X,Y,Z Vertex 3 {m}
  4.57200000000003, -4.57199999999995, 3.9624; !- X,Y,Z Vertex 4 {m}

OS:Surface,
  {091f0f62-3e00-4314-98d3-69858c43519c}, !- Handle
  Surface 12,                             !- Name
  RoofCeiling,                            !- Surface Type
  ,                                       !- Construction Name
  {03951b6d-fd64-4688-8471-ce7d1c3ffaba}, !- Space Name
  Surface,                                !- Outside Boundary Condition
  {1c32e82a-8f60-4dc0-9719-00a73b415d07}, !- Outside Boundary Condition Object
  NoSun,                                  !- Sun Exposure